31 
 
C         -3.5426355256       0.5724460447        0.7964373086
C         1.3789615028       -0.811536044        0.5488646454
C         3.6699066774       0.5725309339        -0.4824372004
O         2.6165133375       -1.46410303        0.3062514224
O         -1.4756709697       -0.5743069133        -0.8229792725
C         -2.594181836       -1.3765771447        -0.437504829
O         -0.0178400055       1.0741510641        -0.247272336
C         -3.8294132612       -0.5169948919        -0.2349109209
C         2.3405583697       1.3052910145        -0.3248875729
C         -1.1431778833       0.3669403341        0.1866362596
C         3.730021994       -0.5903979872        0.489011367
C         1.1862726941       0.3257548649        -0.4551211023
C         -2.2783578358       1.3416625639        0.4118763422
H         -4.3860758542       1.2558445669        0.8838297792
H         -3.3969082209       0.1101789029        1.7763024905
H         1.3599872391       -0.4126562401        1.5702616188
H         0.6103762536       -1.5751114333        0.44920401
H         3.7710228955       0.1925673724        -1.5011087061
H         4.505102025       1.2470130163        -0.2942204631
H         -2.3463411541       -1.9125394164        0.4860413394
H         -2.7328059694       -2.1050397975        -1.2329790221
H         -4.1034973701       -0.0630041051        -1.1898662958
H         -4.6582013967       -1.1495006657        0.084184442
H         2.284623297       1.7633205335        0.6661629285
H         2.2371065892       2.0974212071        -1.0668385537
H         -0.9319476428       -0.1816502387        1.1124507783
H         4.6195022226       -1.1976218344        0.3357663453
H         3.7279533867       -0.2236439177        1.5215833486
H         1.168614857       -0.1062033641        -1.459602669
H         -2.4348078642       1.8967750283        -0.5158064142
H         -1.9913395517       2.0466185767        1.1917509322

