31 
 
C         -3.4346950617       0.7280418902        0.8217183623
C         1.3516563619       -0.9338818363        0.2444843973
C         3.6683679509       0.7124890971        -0.1170369858
O         2.6555489482       -1.482341055        0.1114791178
O         -1.5641080428       -0.7144107083        -0.7971728504
C         -2.6457226375       -1.4143718724        -0.1787943669
O         -0.0341993118       0.9595585791        -0.6453742084
C         -3.8422073663       -0.4987072472        0.0088893725
C         2.2746785088       1.3378184713        -0.1104634884
C         -1.1088678094       0.3622980006        0.0146564682
C         3.6520205229       -0.6046155103        0.6363862737
C         1.2561945234       0.3280769421        -0.6155917687
C         -2.205274662       1.3901462236        0.1983492491
H         -4.2545181304       1.4423152342        0.8847556144
H         -3.1953604793       0.418845759        1.8426619919
H         1.169031376       -0.6971224474        1.2975463754
H         0.6507781026       -1.7000673496        -0.0778425841
H         3.9869507492       0.5299870715        -1.1454746301
H         4.3949220717       1.383379279        0.3413586637
H         -2.3105025721       -1.8074338859        0.7880992057
H         -2.8760023084       -2.2539209547        -0.830731956
H         -4.2076217318       -0.1905169951        -0.9733029853
H         -4.6420233129       -1.0488504279        0.5053834927
H         1.9939720069       1.6230690369        0.9072931633
H         2.2460417187       2.2338659461        -0.730876262
H         -0.8094922194       -0.042907148        0.9871326295
H         4.5994673117       -1.1310963291        0.5436953553
H         3.4474978979       -0.4331694272        1.6990458367
H         1.4963338063       0.0408793362        -1.642299277
H         -2.4481670331       1.8015550946        -0.7841291609
H         -1.830533178       2.197876233        0.8265619547

