31 
 
C         -3.5678442586       0.4137007749        0.914266212
C         1.6164592257       -0.6157443425        0.93951074
C         3.5720785675       0.4117608804        -0.8822583717
O         2.8373373185       -1.2927406976        0.6792690302
O         -1.5732304289       -0.4316246609        -0.9635970701
C         -2.7521084115       -1.2200497474        -0.7816459681
O         -0.0137589551       0.9309474835        -0.0236735802
C         -3.9238459409       -0.3528764782        -0.3574841102
C         2.244705507       1.1438736415        -0.7023036579
C         -1.1807049382       0.2058158328        0.2434581656
C         3.8938893171       -0.3859246558        0.3670414646
C         1.1606970042       0.1619529023        -0.294779439
C         -2.2498960939       1.1638502073        0.722262211
H         -4.360914944       1.1099796755        1.1833244303
H         -3.4618784533       -0.2926997961        1.7418516596
H         1.7421718375       0.0831982843        1.7752940835
H         0.9021643785       -1.3838020613        1.2251132794
H         3.51251022       -0.2691652147        -1.7338775941
H         4.3771804284       1.1198085265        -1.0782891775
H         -2.5548432174       -1.9881013476        -0.0254718749
H         -2.9353501998       -1.712143745        -1.7340321185
H         -4.1551802212       0.3478029273        -1.1629440973
H         -4.7991013594       -0.9842765041        -0.2022752334
H         2.3403467336       1.8919318963        0.089628719
H         1.9505793951       1.6590982367        -1.6166879131
H         -1.0022639403       -0.5709764332        0.9958534218
H         4.786633641       -0.993723577        0.2362811457
H         4.047928232       0.2866663292        1.2183683129
H         0.9645338228       -0.5399628976        -1.1089937462
H         -2.3617700223       1.9458653485        -0.0324567404
H         -1.9186272441       1.6272392119        1.6513068171

