31 
 
C         -3.5942070283       0.4522956429        0.4427928161
C         1.8661603043       0.2136668525        -1.2641965961
C         2.9578418729       -0.2468866889        1.3255988923
O         3.2519050883       -0.032548282        -1.076254842
O         -1.1454803524       -0.7033486202        -0.4935448096
C         -2.1680029131       -1.5519982547        0.0335429262
O         -0.0753675503       1.3050867804        -0.361233011
C         -3.5410171659       -0.9402020811        -0.1820074032
C         1.4669687905       0.0727483953        1.1944276205
C         -1.1245914524       0.5538709646        0.1714096582
C         3.4786689974       -0.880943229        0.0486789354
C         1.2744809129       0.9246061829        -0.0509664372
C         -2.4227367787       1.2992883649        -0.0554461769
H         -4.5384608829       0.9445128247        0.2139132903
H         -3.532156343       0.3604069155        1.5303876101
H         1.3386202465       -0.7311576518        -1.4330864973
H         1.7684392807       0.8386776936        -2.1499791974
H         3.520267689       0.6679269621        1.5235301968
H         3.1261520872       -0.9276185653        2.1600485062
H         -1.984349982       -1.7101942878        1.1026099876
H         -2.0644237355       -2.5057252531        -0.4788552364
H         -3.7330292998       -0.8745268825        -1.255332541
H         -4.2977907514       -1.5934853206        0.2531905709
H         0.9070101939       -0.8604008201        1.0979157728
H         1.1080085487       0.5954619283        2.0809921299
H         -0.9772881705       0.3723851331        1.241311685
H         4.5530014066       -1.0455424682        0.0954506333
H         2.9832102557       -1.8427236883        -0.1260763928
H         1.8139993289       1.8645124073        0.0831081951
H         -2.5184113763       1.4935175936        -1.1262204937
H         -2.3779672209       2.2555524518        0.4651722077

