31 
 
C         -3.6100750857       0.3713567124        0.55716666
C         1.9925269573       0.7120575461        -1.0771539316
C         2.9166716824       -0.7694016353        1.1629467784
O         3.3696204222       0.4212122059        -0.9021918453
O         -1.2106703414       -0.5663321304        -0.6941314109
C         -2.2642922507       -1.4898450224        -0.4126843419
O         -0.0614415713       1.2801309064        -0.0333104985
C         -3.6124095632       -0.7913732082        -0.4327309493
C         1.425538447       -0.4401088377        1.0585590152
C         -1.1368855709       0.4547501046        0.2950493934
C         3.5525227408       -0.815143016        -0.2135578606
C         1.2781054864       0.849085796        0.2633981084
C         -2.4067040204       1.2797377458        0.3020104048
H         -4.5344117421       0.9431856934        0.4868322144
H         -3.5504210974       -0.0236683161        1.5748235995
H         1.5108928243       -0.083038912        -1.6589789823
H         1.929516088       1.6453055417        -1.6336682809
H         3.4249303728       -0.0119898252        1.7633553682
H         3.0551454554       -1.7312907766        1.6564229514
H         -2.0858789468       -1.9472005629        0.567537872
H         -2.198548321       -2.2658545463        -1.1719703121
H         -3.8017215478       -0.4204752797        -1.4425906737
H         -4.3945253646       -1.511075288        -0.1893843828
H         0.9080255753       -1.253712021        0.5461391612
H         0.9961116333       -0.3365922735        2.0543478893
H         -0.9917998278       -0.0215792865        1.2697576785
H         4.626863391       -0.9743126887        -0.1511613059
H         3.1116856752       -1.6224261902        -0.8093318818
H         1.7451887128       1.6627491166        0.8228560443
H         -2.4962973503       1.7701485674        -0.6700865226
H         -2.3237338626       2.0494508802        1.0689570414

