31 
 
C         -3.6058157547       0.7823450889        0.5539773549
C         2.3051593451       1.2720282465        -0.3674023451
C         2.9068891751       -1.3838402291        0.4901649876
O         3.5685926608       0.9311412143        0.1789752019
O         -1.5257081203       -0.822928889        -0.5910364023
C         -2.704569877       -1.4502806331        -0.0807683362
O         -0.0048840601       0.8540353022        -0.3915047422
C         -3.9011303595       -0.5218614957        -0.1822992481
C         1.5018530309       -1.0646156621        -0.0216556411
C         -1.1840950146       0.3374399727        0.155711524
C         3.9161688228       -0.4233676251        -0.1103189454
C         1.2024844392       0.4065755952        0.2249192635
C         -2.2844414854       1.3738784238        0.0631837766
H         -4.4137281787       1.4996901722        0.4160216388
H         -3.5314017244       0.5801319834        1.6258516127
H         2.3200436751       1.1406369183        -1.4558103022
H         2.1282080809       2.3214360875        -0.1397056208
H         2.9369185147       -1.2943762534        1.5783187297
H         3.1837504996       -2.4066405001        0.2346396298
H         -2.5332622692       -1.7367230475        0.9632245268
H         -2.8427957422       -2.3551781962        -0.6681195784
H         -4.1023857357       -0.3182949279        -1.2364501461
H         -4.7774733019       -1.0181374002        0.2355800777
H         1.4443968734       -1.251920712        -1.097439221
H         0.7589510638       -1.6932427541        0.4685482025
H         -1.0167574916       0.0410185005        1.1999259126
H         4.9103087596       -0.5765843324        0.3039726633
H         3.9645776976       -0.5525067097        -1.1974155751
H         1.1436250832       0.5981086028        1.3012453726
H         -2.3672435169       1.6797727341        -0.9826317574
H         -1.9971960894       2.2441305252        0.6529073864

