31 
 
C         -3.5818780511       -0.9988443545        0.0629682313
C         1.8461950077       -1.1764095739        -0.3726114867
C         3.3875257638       1.1538977225        0.2219040692
O         3.0367910672       -0.8694618278        -1.0820509185
O         -1.6006494663       1.0669699732        -0.0953824021
C         -2.7856225091       1.1612412534        -0.8903761864
O         -0.0189680973       -0.2673493548        0.8337126563
C         -3.9482368213       0.4573950943        -0.2138057521
C         2.0708380314       0.9184980064        0.9620247445
C         -1.1982880637       -0.2842222817        0.0828393417
C         3.9658262337       -0.1661536292        -0.2567490804
C         1.1456847118       0.0951760221        0.0873632026
C         -2.2570006781       -1.071389906        0.8224316839
H         -4.3676859472       -1.4972655163        0.6288254833
H         -3.4798278282       -1.5299559104        -0.8871471008
H         2.0803324712       -1.7912853813        0.5045103259
H         1.2078009284       -1.7480482164        -1.0447676837
H         3.2181105511       1.8004316073        -0.6418160273
H         4.1101789657       1.6492219344        0.8703140495
H         -2.5927049692       0.7175094036        -1.8735842371
H         -2.9761289188       2.2237842682        -1.022718825
H         -4.1748009999       0.969942106        0.723838292
H         -4.8291197054       0.5250324767        -0.8527931948
H         2.2595951986       0.3614010474        1.8840821693
H         1.5908950683       1.8599358931        1.2291041071
H         -1.0131586011       -0.7188370463        -0.9089709515
H         4.8561118073       -0.013927755        -0.8630535452
H         4.2276109527       -0.7982081265        0.5992965572
H         0.8531099979       0.6813416834        -0.7873831663
H         -2.363607649       -0.6363979833        1.8189876324
H         -1.9184644508       -2.1014906287        0.9314360117

