31 
 
C         -3.5877792776       0.5214742628        0.7809163767
C         1.4635425008       -0.7587487358        0.7116634775
C         3.6228237843       0.527359003        -0.6736033996
O         2.6836567864       -1.4232753688        0.4188771582
O         -1.4614712111       -0.5388835657        -0.8244057975
C         -2.6078954077       -1.3476705245        -0.5474161316
O         -0.012928792       1.0494733072        -0.0643760693
C         -3.8405052545       -0.4861020936        -0.33870299
C         2.309365839       1.27443898        -0.4585579036
C         -1.1660222772       0.3245977047        0.2607849007
C         3.7937522966       -0.5270207149        0.4033365495
C         1.1604137982       0.2864347669        -0.3599365465
C         -2.2991102958       1.2969346863        0.5065014206
H         -4.4263064713       1.2091163951        0.8812609441
H         -3.4906015411       -0.0123561787        1.7299153511
H         1.52340389       -0.2717346305        1.6927222684
H         0.7006476533       -1.5339684584        0.7448801329
H         3.6233417874       0.0408921536        -1.6512260797
H         4.466142411       1.2171788007        -0.6448794706
H         -2.408986435       -1.9513392882        0.3453557349
H         -2.7185793191       -2.0153504692        -1.3985928501
H         -4.0655548888       0.0397156412        -1.2693228748
H         -4.6901472777       -1.1278141465        -0.1039957213
H         2.3555148965       1.8382314381        0.4771870992
H         2.1184493679       1.9804543777        -1.266772635
H         -1.0013228062       -0.2912553623        1.1537707783
H         4.6754152129       -1.1400887064        0.2293584873
H         3.8827582727       -0.0542297704        1.3878770541
H         1.0294758597       -0.2265042452        -1.3160569027
H         -2.4086903307       1.9180426207        -0.3853814243
H         -2.0379397709       1.9412211213        1.3457330631

