31 
 
C         -3.3186652734       0.9203184057        0.5968611886
C         1.554278637       -1.0676789486        -0.4547231411
C         3.2786783006       0.9737302577        0.5718082715
O         2.942245063       -1.2900343969        -0.2457252341
O         -1.4723460752       -0.9952202912        -0.471432934
C         -2.4576141366       -1.4144808423        0.4753123248
O         -0.0583169645       0.6308293588        -1.1745171825
C         -3.6981868036       -0.5437309688        0.388465602
C         1.8091556687       1.3006733903        0.300334645
C         -1.0367009063       0.3355047572        -0.2179396119
C         3.4412124904       -0.5112081543        0.8414318332
C         1.3066207646       0.3948498611        -0.8149463925
C         -2.1871957867       1.310042318        -0.3543411545
H         -4.1788332975       1.5711553276        0.4456319331
H         -2.9834928095       1.0605086989        1.628064512
H         0.9998520304       -1.3355857743        0.4520602711
H         1.2419050372       -1.7216950162        -1.2665473763
H         3.8875762589       1.2461992957        -0.2928276052
H         3.6459187392       1.5384286859        1.428735082
H         -2.0280880417       -1.3658852619        1.4827072012
H         -2.6757878315       -2.454551621        0.2437407094
H         -4.1533389964       -0.674981936        -0.5958322006
H         -4.420258322       -0.8717800936        1.1367346443
H         1.2338329674       1.1295316877        1.2122067766
H         1.6846794557       2.3452222102        0.0134788583
H         -0.6246999948       0.369321645        0.7961272301
H         4.4883440599       -0.7836744582        0.9546622922
H         2.9047227956       -0.7920314411        1.7549120143
H         1.8644952116       0.6141954703        -1.7262893547
H         -2.5304253746       1.2800281981        -1.3913078022
H         -1.8211708658       2.3149216361        -0.1435844

