31 
 
C         3.4286302752       -0.4056743994        0.025870186
C         0.6755402029       0.3085077997        0.4885223566
C         -2.1749376913       1.1930386999        -0.8447668507
C         3.0015606205       1.0561284699        -0.0972001282
 C         -3.0081920748       -0.3981532602        0.8878092404
O         -1.8923273468       -1.2422550284        0.638903052
C         2.2432827927       -1.3139972567        -0.2581011612
C         -1.0973826176       0.1678233475        -1.2095256841
C         -2.6764118647       1.0569099042        0.5934471172
C         -1.508707877       -1.2185296136        -0.7254776132
O         1.1427177053       -1.0215395806        0.6009138233
O         0.2102147516       0.583593641        -0.8106463071
C         1.7847203792       1.3049637131        0.7927550792
H         3.7903738139       -0.6002648037        1.0385717545
H         4.2382966921       -0.640420017        -0.6659286349
H         -3.0172792816       1.0276587913        -1.522078736
H         3.8161235628       1.7229804565        0.1838530659
H         2.7453375858       1.2745857731        -1.1356517927
H         1.9277488203       -1.2095678256        -1.3003938886
H         2.4878098622       -2.3585673199        -0.0768866284
H         -1.9308886813       1.4134137896        1.3046881515
H         -3.5690142109       1.6663548096        0.7381999013
H         -2.3517828452       -1.5484202529        -1.3451591569
H         -0.6893674444       -1.9230928814        -0.8370920274
H         2.0631363565       1.1778909626        1.8407166645
H         1.3950640064       2.3148031267        0.6690643004
H         -0.1283306237       0.3725858142        1.2155025551
H         -3.8517371421       -0.7224527653        0.2650689248
H         -3.2764583838       -0.5438124394        1.9320350642
H         -1.7945569159       2.1947683049        -1.0422489887
H         -1.0263564264       0.11535604        -2.2968026388

