31 
 
C         3.0559170811       0.8232030318        0.7432918513
C         1.1891958616       -0.6109557504        -0.9214605342
C         -1.6514613502       0.6922862355        -1.1369069525
C         2.7691816598       -0.6485646536        1.0341758863
C         -3.0537162357       0.5987532652        0.9262962316
O         -2.526519993       -0.6856199124        1.2317539394
C         1.8488328403       1.4498023075        0.0664488581
C         -1.2011996145       -0.7333529921        -0.8189754992
C         -2.0508464522       1.4285902624        0.1412745986
C         -2.233132683       -1.4220782514        0.0589416774
O         1.4933499916       0.7530530232        -1.1277996285
O         0.0445445836       -0.7874010703        -0.1267054488
C         2.3474247742       -1.3426542856        -0.2591647734
H         3.9221904868       0.9084145536        0.0827508566
H         3.2804713518       1.3717349625        1.6585357943
H         -2.5177194928       0.6236319311        -1.8006367703
H         3.6447213857       -1.1403004466        1.4567402588
H         1.9655312441       -0.7250915244        1.7697447259
H         0.9974270635       1.4505754501        0.7517309961
H         2.0449260982       2.4750382995        -0.2396934798
H         -1.1734039348       1.6000904891        0.7657589252
H         -2.4842004359       2.4009923411        -0.0938396052
H         -3.1487777109       -1.5685442562        -0.5266959223
H         -1.8606032286       -2.3921227854        0.3815818405
H         3.1816482682       -1.3428059915        -0.9633702081
H         2.0544971481       -2.3770738025        -0.0853713273
H         1.0008059782       -1.0045378768        -1.9231211439
H         -3.979604448       0.4797890189        0.3490326655
H         -3.2994818665       1.0633094572        1.8789131174
H         -0.8648219454       1.2201408215        -1.6714745373
H         -1.1096904252       -1.3095328512        -1.7457733921

