31 
 
C         3.5024038576       -0.0063286435        -0.3632644484
C         0.8611235315       -0.0393453441        0.7759122629
C         -1.9594431621       0.4098066345        -1.5056843537
C         2.8447102071       1.3145809561        0.0323095939
C         -3.3719439633       0.2299663285        0.5491864743
O         -2.3473295928       -0.5234146176        1.1876505411
C         2.4322610034       -1.028932316        -0.7056775949
C         -0.9236525712       -0.4509062714        -0.7918987856
C         -2.7965021624       1.1828291469        -0.4868063336
C         -1.6248229546       -1.3070506671        0.2569954112
O         1.525169633       -1.2207325037        0.3810104656
O         0.0381616126       0.4534518661        -0.249259887
C         1.8357751896       1.0646390552        1.1518359393
H         4.1038066352       -0.3849311444        0.4668166685
H         4.1640099388       0.1231173529        -1.2202870694
H         -2.6035243985       -0.2455145327        -2.0962838194
H         3.5919287048       2.0386710974        0.3552239768
H         2.3324123269       1.7386363799        -0.8333857855
H         1.8764628824       -0.7078214589        -1.5918095236
H         2.8606905782       -2.0085981236        -0.9050513653
H         -2.1731246916       1.9217630764        0.0177293607
H         -3.6097853952       1.7145619478        -0.9811173423
H         -2.3044711116       -1.9859839478        -0.2722935562
H         -0.9206665603       -1.912339778        0.8221583151
H         2.3574693797       0.7465782159        2.056315086
H         1.2696605086       1.9639015419        1.3920883555
H         0.2583228886       -0.331022689        1.6368604407
H         -4.0789642145       -0.4617007042        0.0738602475
H         -3.8940725586       0.7668983826        1.3382675339
H         -1.4569065627       1.0865487187        -2.1965657
H         -0.4273709787       -1.1245159589        -1.4969141079

