31 
 
C         3.4348479778       0.4530677548        0.3988145788
C         1.0131252939       -0.7736739632        -0.546351367
C         -1.7224282564       1.4213993587        0.537523486
C         2.7173806731       -0.5640992622        1.2850030742
C          -3.4836048317       -0.3395991517        0.3953708964
O         -2.6752726462       -1.0802992449        -0.5102806319
C         2.4357380605       1.1256548854        -0.5274177454
C         -0.9326758082       0.6292722874        -0.4965421992
C         -2.6336813763       0.49420893        1.3410857531
C         -1.8839338705       -0.2321515527        -1.3202869783
O         1.7310928397       0.1654486783        -1.3163375224
O         0.0143032713       -0.155213646        0.2253152252
C         1.9198816839       -1.5306908524        0.4105787988
H         4.1933462125       -0.0513726938        -0.2047296762
H         3.9388732033       1.2119275806        0.9980231453
H         -2.3265747752       2.1635903938        0.0108426056
H         3.4306069763       -1.1144002049        1.8977127667
H         2.0400028174       -0.0416256488        1.9629522603
H         1.7195578903       1.7159498989        0.0526881351
H         2.927644039       1.784568355        -1.239340447
H         -2.0335250456       -0.1721899466        1.9617311908
H         -3.2827099635       1.0696505477        2.0015150354
H         -2.5269240192       0.4352312498        -1.9075690453
H         -1.3466871273       -0.8747807701        -2.0145792264
H         2.600987183       -2.1355632113        -0.1905849858
H         1.3117748521       -2.2071823145        1.009962176
H         0.5706316552       -1.4485896322        -1.2808163187
H         -4.1583639524       0.3102860754        -0.1764834405
H         -4.0842652631       -1.0684173736        0.9354483763
H         -1.0303435639       1.9588423695        1.18567842
H         -0.40461013       1.3068051036        -1.1714063399

