31 
 
C         0.9550320554       -0.0219420519        0.68178482
C         3.7138333421       0.0432059737        -0.3643564633
O         -1.4806505577       -1.1196647672        -0.609877694
C         2.0288885618       1.0487090088        0.9130655959
 C         1.48553602       -1.0694951672        -0.3016425542
O         -0.2667198882       0.6378093916        0.3225225497
C         -2.1661255593       1.1826589171        -0.9510575419
C         -3.1570154338       1.070528882        0.2063841284
C         -1.0138397887       0.2027705756        -0.7805103464
 C         -3.5855074364       -0.3866886207        0.3713183359
C         -2.3577238556       -1.2716721048        0.5063790233
C         2.9753964291       -1.2567663577        -0.0207740216
O         2.8679168653       1.1831333749        -0.2182030728
H         0.7614945728       -0.5192212618        1.6374457177
H         4.600403704       0.1668603813        0.264565779
H         4.0252920916       0.0413009991        -1.4076344733
H         1.5511050486       2.0107842691        1.0821715507
H         2.630101196       0.7994446792        1.7933968957
H         1.3758827258       -0.71957701        -1.3278545609
H         0.9327642016       -1.9992887386        -0.2065206489
H         -1.7621861873       2.1904125748        -1.0387707305
H         -2.6657190859       0.9383246211        -1.8903070134
H         -2.6839252732       1.4166821508        1.1271531439
H         -4.0203513202       1.7097096178        0.0240604355
H          -0.4049142072       0.1672642081        -1.6823994543
H         -4.2213839239       -0.5141010721        1.2479789474
H         -4.1577824761       -0.7054981749        -0.5033419674
H         -2.6238904888       -2.3261224887        0.5289260803
H         -1.8177847516       -1.0316733778        1.427261062
H         3.1206200887       -1.5165657103        1.0295343927
H         3.385113331       -2.0746217214        -0.6105039152

