31 
 
C         0.9502037363       -0.0576917155        0.563313706
C         3.780297167       0.0873794884        -0.2290890808
O         -1.5434140049       -1.2080200889        -0.441404231
C         1.9865529614       0.9958948516        0.9722092152
 C         1.5483057004       -0.981630575        -0.4975784463
O         -0.25565469       0.620645415        0.1951456662
C         -2.1850458837       1.0430206814        -1.0901997775
C         -3.1459497       1.1216509445        0.0950810288
C         -1.0532298493       0.0652285025        -0.814637817
C         -3.6038924349       -0.2859157868        0.4737525234
C         -2.3935477759       -1.1750729605        0.7052502873
C         3.0040246219       -1.2321633672        -0.1090330407
O         2.9274461053       1.2184914508        -0.0604099138
H         0.7163615857       -0.6671533319        1.4434117189
H         4.5906133687       0.1318408243        0.5044788369
H         4.2071576687       0.1903098785        -1.2252219879
H         1.4858621476       1.9414468983        1.1669828803
H         2.5057604208       0.6826066715        1.8834610553
H         1.5371654657       -0.4902888844        -1.4716295027
H         0.9765251118       -1.9025567083        -0.5742832094
H         -1.7585738068       2.0167482531        -1.3277817179
H         -2.71693713       0.6855773547        -1.9738447715
H         -2.6395638042       1.5803632401        0.9463878043
H         -3.9984281748       1.7524895823        -0.1546726388
H         -0.4739940434       -0.118503109        -1.7174000614
H         -4.2194868864       -0.2717465374        1.3737001853
H         -4.2059692515       -0.7092929601        -0.3340039597
H         -2.6831403508       -2.2079393442        0.8856316105
H         -1.8239162327       -0.8198714818        1.5690878404
H         3.0489832202       -1.6138849646        0.9128552962
H         3.4603807381       -1.9832462213        -0.7507714987

