31 
 
C         1.0677402983       0.4210440915        1.0332921648
C         3.2177331121       -0.3611975119        -0.8341873477
O         -1.0368519409       -0.5177211376        -1.011035953
C         1.9092535927       1.3311728918        0.1350005967
C         1.4787158727       -1.0404357895        0.819863943
O         -0.345297944       0.6098144263        0.921309011
C         -2.2658140004       1.4035636797        -0.1972870168
C         -3.246387966       0.4836223298        0.5285169803
C         -0.9098229855       0.7321251261        -0.3593038742
 C         -3.3028427596       -0.8645512843        -0.1883502564
C         -1.8993432268       -1.4295605803        -0.3321137649
C         2.9694100023       -1.0898573155        0.493596299
O         2.2628790195       0.6761459806        -1.0684607499
H         1.2771640677       0.7009258733        2.0670093481
H         4.2251026187       0.0643909138        -0.8601307934
H         3.1102832289       -1.0491277002        -1.6712772464
H         1.3672043746       2.2383621973        -0.1244176371
H         2.8118880772       1.6332128689        0.6746583772
H         0.9125313676       -1.4422519558        -0.0192748337
H         1.2372759396       -1.6289199093        1.7033457046
H         -2.1315951157       2.3462835858        0.3315718642
H         -2.6429682844       1.6284694721        -1.1967199423
H         -2.9144822234       0.3353743532        1.5580271688
H         -4.2335754378       0.9429925067        0.5681241369
H         -0.2616951698       1.3102454076        -1.0161906348
H         -3.9245973341       -1.5757470638        0.3563934092
H         -3.7380262327       -0.736180592        -1.1824560458
H         -1.8925901422       -2.3395398519        -0.9284969152
H         -1.4810417291       -1.6593393639        0.6522483104
H         3.5381543144       -0.6213615743        1.2991457848
H         3.3237616059       -2.1158980743        0.4110879126

