31 
 
C         1.0808802392       0.6351495528        0.9371286742
C         3.167921428       -0.5368186577        -0.7929774174
O         -1.0230722119       -0.521445667        -1.0187998284
C         1.8681272856       1.3220281423        -0.177463759
C         1.5505164458       -0.8163308586        1.0858792181
O         -0.3485169679       0.6876396645        0.8563309013
C         -2.3715568335       1.3176660477        -0.1892241634
C         -3.2576337463       0.3374441097        0.5769089773
C         -0.9745204245       0.7500373893        -0.3959288548
C         -3.2368594608       -1.0179905927        -0.1273295456
C         -1.7997749471       -1.4799022656        -0.3020355047
C         3.020139834       -0.9160522743        0.6865165572
O         2.1883442842       0.4164232891        -1.2144197315
H         1.30513249       1.1755197921        1.8590788617
H         4.1664750917       -0.1368454844        -0.9912215504
H         3.0132168164       -1.4106345795        -1.4241954918
H         1.3237188545       2.1559011683        -0.6131454084
H         2.7844982127       1.7339758936        0.2559173453
H         0.9545953457       -1.4328480472        0.4110867004
H         1.377580473       -1.165867345        2.1018667368
H         -2.2889969592       2.2738916817        0.3257400913
H         -2.7987326889       1.5033975081        -1.1766031394
H         -2.8827508324       0.2243315081        1.5961639607
H         -4.2738471067       0.7244366742        0.6453637577
H         -0.4096636896       1.364838824        -1.092531157
H         -3.790098361       -1.7669813997        0.4402248849
H         -3.7066095792       -0.9315745772        -1.1101935617
H         -1.7409909772       -2.3984910805        -0.8821962385
H         -1.343716141       -1.6600798486        0.6758171009
H         3.6186462824       -0.2528791639        1.313766991
H         3.4044098439       -1.9237144038        0.8356915932

