31 
 
C         1.0777934565       1.1125922947        -0.1838051659
C         3.0985319078       -1.029299867        0.2077728057
O         -1.1549009576       -0.7973039729        -0.9387714522
C         1.5933289196       0.0853212878        -1.2033889901
C         1.7412883791       0.8220477721        1.163998854
O         -0.3355118042       1.1504428407        0.0523907555
C         -2.6171333599       1.0853483685        -0.5188907802
C         -3.0731648558       0.451340195        0.7948786101
C         -1.2196153631       0.6110261381        -0.8906668389
C         -2.9295369689       -1.0673981999        0.7048303716
C         -1.5125334007       -1.4282011419        0.2895431362
C         3.1627588946       0.3153601164        0.9441377389
O         1.9156451862       -1.1434010666        -0.5811193084
H         1.3670328221       2.1043398193        -0.5437080899
H         3.9765398299       -1.1670283961        -0.4304856607
H         3.0552462891       -1.8524195744        0.9193170189
H         0.8734042845       -0.1270101653        -1.9857632986
H         2.4871991958       0.5026418818        -1.6788070547
H         1.152550821       0.0499552717        1.6615748297
H         1.7221817155       1.7103121693        1.793247403
H         -2.618893278       2.1730262006        -0.4627994417
H         -3.2902400716       0.7883110965        -1.3251903359
H         -2.4575692727       0.8275124667        1.6141863439
H         -4.1045331798       0.730621927        1.0080841765
H         -0.9568128342       0.9380953169        -1.8991231324
H         -3.1590830324       -1.5423228013        1.6592597577
H         -3.6279865414       -1.4605769077        -0.0380425715
H         -1.4062072633       -2.4961242238        0.1117614704
H         -0.8001206033       -1.1361092376        1.0656699568
H         3.7270917192       1.0466078566        0.3627686251
H         3.6865353661       0.1891095349        1.889865267

