31 
 
C         0.9175401757       -0.1471158659        0.3815791726
C         3.7747569451       0.3866276367        -0.1605834311
O         -1.6806282411       -1.2355175126        0.4880493295
C         1.7376524398       1.0777099819        0.7810184645
C         1.7997901253       -1.1186125704        -0.4125883702
O         -0.1865189621       0.3197935143        -0.3909975983
C         -2.2293596458       -0.001895889        -1.5300492385
C         -3.024821258       1.0095307497        -0.7059834614
C         -1.1505538173       -0.6602675806        -0.6861630464
C         -3.5359643293       0.3395869997        0.5685728771
C         -2.377631357       -0.3013622011        1.314150594
C         3.2345493477       -1.024567309        0.1007100305
O         2.7318707775       1.3606105039        -0.1851621549
H         0.5391192133       -0.6290934501        1.286298605
H         4.5137057301       0.6661055641        0.5962583377
H         4.2461523645       0.4393041089        -1.1406668235
H         1.0865891725       1.9472597195        0.8430034309
H         2.2007021754       0.9209464388        1.7600764582
H         1.7665739649       -0.8253338487        -1.4641147044
H         1.4256396279       -2.1382913961        -0.3383361487
H         -1.7619233541       0.4641141164        -2.3966493021
H         -2.8925026039       -0.7903910102        -1.8902260738
H         -2.3820679207       1.8512761254        -0.4415782377
H         -3.8524327711       1.4043206608        -1.2943127317
H         -0.6900999231       -1.4960338204        -1.2170521113
H         -4.0307402143       1.0595412263        1.2211444526
H         -4.2648697423       -0.4336115756        0.3138107329
H         -2.7198434401       -0.8711233122        2.1751255901
H         -1.6805121427       0.4668234813        1.6625608438
H         3.2520049718       -1.250056749        1.1684488736
H         3.8770246913       -1.7549187367        -0.3877683588

