31 
 
C         1.0623304325       0.2867389751        -0.1471697326
C         -3.765062989       -0.0391263883        -0.7144714183
C         -1.1538707386       -0.1851704622        0.6589949689
C         -2.3703312318       -0.0371453551        -1.349750938
C         -3.6368066456       -0.130371558        0.8147774649
C         2.106882801       1.3812956214        -0.0040337166
C         1.5933757451       -1.0140933784        0.4551004053
C         3.8321932506       -0.4137727415        0.0360305035
O         2.813791845       -1.3862164346        -0.1577007801
C         3.4406639563       0.9165090929        -0.5844778234
O         -0.1157978455       0.7536548504        0.5004830321
C         -2.3471335309       0.5535748012        1.2600197148
O         -1.4722650313       -0.8144044833        -0.5601704298
H         0.8499976433       0.1099587511        -1.2060119681
H         -4.353195751       -0.8738913012        -1.093351908
H         -4.2813097013       0.8788918809        -0.9983691594
H         -0.8332868642       -0.9971096871        1.3142046635
H         -2.3741589436       -0.482019411        -2.341294012
H         -1.9801702948       0.9796282255        -1.4385857438
H         -3.6065511545       -1.1770162386        1.1210538983
H         -4.4993407953       0.3200280656        1.301944764
H         1.7560586836       2.2901629851        -0.4929282624
H         2.2235695203       1.6017677095        1.0606896621
H         0.9061503144       -1.8401169327        0.2848846207
H         1.7325934089       -0.8831401754        1.5366806243
H         4.0128088263       -0.2899555587        1.1108668674
H         4.7317539842       -0.8203901974        -0.4209680893
H         4.2205869026       1.6541127583        -0.395299407
H         3.3575395764       0.7923307198        -1.6661448253
H         -2.3307373667       1.5874727541        0.9098972377
H         -2.247517006       0.5724581124        2.3435347865

