31 
 
C         1.1076983691       0.338932556        0.2172232879
C         -3.6513131088       -0.8220213267        -0.2522516455
C         -1.232329258       0.7109441516        0.4778453995
C         -2.2029011687       -1.3218106728        -0.1977011123
C         -3.7029089273       0.6574177086        0.1615484123
C         1.4356112217       -1.0612670029        -0.2830550085
C         2.2091363133       1.3101989977        -0.1881663058
C         3.8395161546       -0.3802726094        -0.2367946216
O         3.4718391247       0.8886862296        0.2901788937
C         2.842780687       -1.4535056037        0.1687800103
O         -0.1014735588       0.8307841702        -0.3474559054
C         -2.4086131025       1.349344434        -0.2566948271
O         -1.4864371903       -0.6316215028        0.8233963216
H         1.0299580055       0.3317818315        1.3096878601
H         -4.2839960798       -1.4186256036        0.4035536388
H         -4.0276297465       -0.9448712801        -1.2687026347
H         -1.0391588769       1.2047239435        1.4339678608
H         -2.1458117357       -2.379867246        0.0450940589
H         -1.696980521       -1.1696378573        -1.1544815989
H         -3.8120862401       0.7341766044        1.244240451
H         -4.5645034805       1.1522309127        -0.2824205316
H         0.6891470923       -1.7695748128        0.0721433893
H         1.3895243072       -1.0461490488        -1.376102637
H         2.0178488887       2.2962762408        0.2308161712
H         2.2251432373       1.3904575461        -1.2827392883
H         3.8962665239       -0.3128515481        -1.3302332437
H         4.834542431       -0.5928649853        0.1481840509
H         3.1358698784       -2.4082377287        -0.2683431961
H         2.8685448522       -1.5668275501        1.2548810082
H         -2.2529071799       1.2322889137        -1.3310261447
H         -2.4273159119       2.4162831388        -0.0431211134

