31 
 
C         1.1858354002       0.4445761608        0.287147267
C         -3.7971829684       -0.5906078691        -0.4356384646
C         -1.1894243099       0.3842586594        0.5762514822
C         -2.4012608484       -1.1261394073        -0.7708212663
C         -3.6738163728       0.6013073825        0.5276870159
C         1.4876441694       -1.0487746634        0.2485696354
C         2.1766763694       1.2009649768        -0.5884943257
C         3.8466572042       -0.423184244        -0.3089674211
O         3.5110656414       0.9541460497        -0.1934136432
C         2.9626708496       -1.2767311609        0.5840882959
O         -0.098904992       0.7913599991        -0.2099212707
C         -2.3541895324       1.3233040829        0.2744549974
O         -1.5303542995       -0.9659837177        0.3455075937
H         1.2821299281       0.8086633643        1.3174359625
H         -4.4071380565       -1.3750679223        0.0103820426
H         -4.2866990036       -0.2832797671        -1.3607977529
H         -0.9102208499       0.4243359284        1.6326216178
H         -2.4192370345       -2.18896314        -0.9980170826
H         -1.978606311       -0.6071018017        -1.6344276198
H         -3.6907405471       0.24647062        1.5592464921
H         -4.5147443843       1.2820968592        0.4106505613
H         0.8416510335       -1.587872415        0.9385417979
H         1.2695487106       -1.4155651844        -0.7586604625
H         2.0084207433       2.273034454        -0.5081414539
H         2.0277178189       0.8982966785        -1.6328280788
H         3.7388790382       -0.7333569296        -1.3556412868
H         4.8950592734       -0.5058754223        -0.0306431257
H         3.224426852       -2.3278822387        0.461861973
H         3.1533629562       -1.009736968        1.6259852282
H         -2.2889496349       1.6317596516        -0.771157919
H         -2.2516768431       2.2190659846        0.8840642109

