31 
 
C         1.2186328246       0.6581207457        0.3391067111
C         -3.6561673179       -0.6170242802        -0.6531353596
C         -1.1714357436       0.2957535732        0.6746688193
C         -2.2102822695       -0.8943849732        -1.0770318067
C         -3.6630781476       0.2678636989        0.6041001225
C         1.4813357901       -0.7705506178        0.8022285255
C         1.9875144551       0.9274808916        -0.9482098761
C         3.6799483884       -0.5942605422        -0.3819468047
O         3.3769112064       0.7403189737        -0.7687790127
C         2.9953819468       -0.9585840615        0.925240992
O         -0.1350962484       1.0170185998        0.0622230446
C         -2.4269432087       1.1618999594        0.6013819942
O         -1.3653165894       -0.9641007038        0.0683472899
H         1.5947435536       1.3402822693        1.1105896011
H         -4.1806890553       -1.5518975976        -0.4600142583
H         -4.1725891494       -0.1168420487        -1.4735868773
H         -0.9189650941       0.0722400873        1.7122406613
H         -2.1143650751       -1.8480840729        -1.5896617405
H         -1.8419116674       -0.11538398        -1.7487697428
H         -3.6446956709       -0.3585338317        1.4972443223
H         -4.5714481506       0.8653002682        0.6521459826
H         0.9943786611       -0.9780662226        1.7538750464
H         1.0796030355       -1.4686191064        0.0664850203
H         1.8386471871       1.9572888186        -1.2673442545
H         1.608191392       0.2573029285        -1.7306466742
H         3.361100167       -1.2802864862        -1.1762152787
H         4.7628246404       -0.6478510311        -0.2933034324
H         3.2287336292       -1.9920586129        1.1814911577
H         3.3902777773       -0.3240717505        1.72161256
H         -2.391337352       1.7511831281        -0.3172764665
H         -2.4226879149       1.8599339769        1.436407734

