31 
 
C         1.1969167298       0.5198216137        0.2986174262
C         -3.766277108       -0.5837986049        -0.5146084109
C         -1.1748201679       0.32912866        0.591387339
C         -2.359964721       -1.0211495183        -0.9367190549
 C         -3.6645334561       0.470635347        0.599629149
C         1.4565696918       -0.9771824182        0.4169662367
C         2.1522676529       1.1371376582        -0.7133461477
C         3.7994790559       -0.4854012563        -0.3152182453
O         3.5002690125       0.9044851524        -0.3578489075
C          2.9406970938       -1.1990003563        0.715364288
O         -0.107480603       0.8739718043        -0.1424738519
C         -2.3716685987       1.2626956057        0.4311485235
O         -1.476090487       -0.9864542747        0.1803002738
H         1.3764000045       0.9868289227        1.2755984187
H         -4.3430918511       -1.4415361685        -0.1711959489
H         -4.2811068183       -0.1713320997        -1.3834184742
H         -0.8867122475       0.2366656355        1.6420700098
H         -2.3478235154       -2.0428145588        -1.3075883142
H         -1.9686588938       -0.374747302        -1.7258439869
H         -3.6538549474       -0.0205356454        1.5738174305
H         -4.527666795       1.1333224398        0.5858067839
H         0.8342990309       -1.4204891811        1.192498066
H         1.1875726629       -1.4544549302        -0.5289443472
H         2.0107124747       2.2152638758        -0.7572613349
H         1.9409915162       0.7131143959        -1.7032283459
H         3.6351322359       -0.9195653077        -1.3090773414
H         4.8578040067       -0.5620965623        -0.0756097931
H         3.175289732       -2.263534896        0.712393153
H         3.1846526715       -0.8112194557        1.7069211651
H         -2.3322974848       1.7108288035        -0.5640095006
H         -2.286990877       2.0711596217        1.1548827424

