31 
 
C         1.2062043597       0.5429429674        -0.7331533025
C         -3.4458381568       -0.9549641295        0.3996652196
C         -1.1112347164       0.8114572462        -0.0349936319
C         -1.9700676748       -1.3573364861        0.3048500608
C         -3.5766452183       0.5672036037        0.2289074206
C         1.6239605485       1.0972905358        0.6231473759
C         1.6021555963       -0.9290252384        -0.8275674158
C         3.4229977744       -0.6441006084        0.621657671
O         2.9969162891       -1.0992802696        -0.6557113845
C         3.1205888703       0.8336405965        0.8089451416
O         -0.1789133988       0.6468740388        -1.0698021226
C         -2.4667758726       1.0736189464        -0.6876439004
O         -1.1443343023       -0.3155535609        0.8184078103
H         1.7418176924       1.0892063549        -1.5132169119
H         -3.8626982897       -1.2640570136        1.3573226251
H         -4.0028890104       -1.4742767143        -0.3813501654
H         -0.825722727       1.6394434965        0.6134454344
H         -1.7515041149       -2.2446591614        0.8936286271
H         -1.6841360787       -1.5634475096        -0.7297942219
H         -3.485838386       1.0569622472        1.1995554874
H         -4.5548173949       0.8283747218        -0.1702552672
H         1.4132517528       2.165185694        0.6888870198
H         1.0675441718       0.5916994844        1.4146152138
H         1.3487073773       -1.3201310369        -1.8112928873
H         1.0497194993       -1.4947189109        -0.0673895606
H         2.9205040852       -1.2314730971        1.4000486392
H         4.4915451407       -0.8408117698        0.6766192965
H         3.4396389249       1.1471928597        1.8029888419
H         3.6961814224       1.4084423623        0.0804309595
H         -2.5021220909       0.5479151541        -1.6438765701
H         -2.5612090724       2.1376831969        -0.8957175025

