31 
 
C         1.1075727808       -0.123923619        0.0231337328
C         -3.9056783727       -0.5563260555        0.1457976088
C         -1.1707784677       0.5673671837        0.1082903024
C         -2.5853485744       -1.3003431747        0.370455472
C         -3.6211367543       0.9264800847        -0.1449552625
C         1.9605192098       -1.0854274286        -0.7853699193
C         1.8630689126       1.1927829275        0.1996733833
C         3.9588634759       0.1422483046        0.077035649
O         3.1052610043       0.981636983        0.8444817373
C         3.336985221       -1.2283678761        -0.1364576278
O         -0.1073915012       0.095757849        -0.6831014101
C         -2.2653700827       1.0596344183        -0.832283789
O         -1.6328790749       -0.4364258429        0.9860418948
H         0.8938230903       -0.554543819        1.0056056904
H         -4.548424698       -0.6524591228        1.019829044
H         -4.4276024298       -1.0155660248        -0.6948047809
H         -0.8286140823       1.3680357684        0.7668078891
H         -2.7074094881       -2.1501844915        1.0368632938
H         -2.1782178692       -1.6706135805        -0.5732752663
H         -3.6000047082       1.4889148987        0.7896659202
H         -4.4087779533       1.3581494396        -0.7593468227
H         1.4579437226       -2.0492396696        -0.8659035823
H         2.065611248       -0.6799191632        -1.7956927615
H         1.307261207       1.8966074677        0.8159565446
H         2.0190761706       1.6415712906        -0.7895801941
H         4.1576543724       0.6203104646        -0.8899355038
H         4.894691654       0.0737840496        0.6273726797
H         3.9948730731       -1.8347357571        -0.7590722044
H         3.242896198       -1.7286644195        0.8296295406
 H         -2.2428350094       0.4539186775        -1.7405582905
H         -2.0497972741       2.0870072372        -1.1195659675

