31 
 
C         -1.926754852       -0.8403911851        1.2138856185
O         -1.3390087612       0.460760799        1.1779803196
C         -3.2199235554       -0.3246136447        -0.8508904386
O         3.0195535144       -1.1507537473        -0.6733829404
C         -1.1997085323       0.985562203        -0.1266730228
C         -2.5390390381       1.0424690863        -0.8475667994
C         3.0996357914       0.9344266183        0.5661425262
O         -0.3318850633       0.2088899083        -0.9092267164
C         1.5741187876       1.0536132987        0.5122871165
C         3.5236177299       -0.5232097707        0.4987629302
C         1.0819978579       0.3169286097        -0.7282922145
C         1.6073563384       -1.1142818371        -0.7117624753
C         -3.3082474293       -0.8470538408        0.5816772904
H         -1.2732206297       -1.5480011569        0.6961256379
H         -1.965206573       -1.1146892785        2.2657801034
H         -2.6392081617       -1.0218197217        -1.458128607
H         -4.2101555464       -0.2497491372        -1.2990208169
H         -0.79985818       1.9880970704        0.0178724239
H         -3.1653843518       1.763027883        -0.3182520791
H         -2.3785217136       1.4160471487        -1.857946598
H         3.4804208139       1.3824315578        1.4839396744
H         3.5466874764       1.4715583849        -0.2730820946
H         1.1326747834       0.6012519072        1.4016207563
H         1.2854512753       2.1035111888        0.4926590273
H         4.606170132       -0.6214995147        0.4573259057
H         3.1583097128       -1.0626293764        1.3812417764
H         1.4880941057       0.8206637801        -1.6117410425
H         1.2938549807       -1.6392344381        -1.6121995291
H         1.188523277       -1.6313763237        0.1615036742
H         -3.7124280633       -1.8594400001        0.6094927135
H         -3.972128126       -0.2074954714        1.16849888

