31 
 
C         -2.1662261784       -0.5580355406        -1.3248886096
O         -1.4815455831       -1.2374228416        -0.2700728968
C         -3.2104311856       0.986065196        0.3265135958
O         2.8392163928       -1.2701974782        -0.0518674146
C         -1.1843238639       -0.4120052545        0.8329428386
C         -2.4267802351       0.2465427949        1.4092265359
C         3.212105273       1.029958691        -0.7194028004
O         -0.2866028627       0.6141935101        0.480058759
C         1.8501768323       1.4090606051        -0.1424215189
C         3.7557296093       -0.185537581        0.0116798808
C         0.922331095       0.2051165052        -0.1495503453
C         1.6019501212       -0.9648641692        0.5638952441
C         -3.4765994965       0.0399999112        -0.8429157737
H         -1.5217817563       0.2279080108        -1.72990478
H          -2.3242409909       -1.3059281028        -2.098474544
H         -2.6312684736       1.842548032        -0.0237417961
H         -4.1441404326       1.3697842415        0.7359746915
H         -0.7299244792       -1.0804624049        1.5652018356
H         -3.0449501649       -0.5430251776        1.8401116193
H         -2.1266509897       0.913474304        2.2165412349
H         3.9134753272       1.8591143021        -0.6265810191
H         3.118032678       0.7928077492        -1.7811060621
H         1.9650595496       1.7404645105        0.8931449677
H         1.3957423546       2.2266386235        -0.7022442614
H          4.6807998618       -0.5425807113        -0.4356064923
H         3.9494118328       0.0616927078        1.0626058689
H         0.7154512153       -0.1025750871        -1.1801118489
H         1.0025992545       -1.8703736712        0.5030239234
H         1.7546801512       -0.7070110499        1.6205827838
 H         -3.9596122019       0.560789824        -1.6701434584
H         -4.1410456542       -0.7668304491        -0.5244391575

