31 
 
C         -2.2860358573       -1.3951534398        -0.1676963481
O         -1.374824884       -0.8942366693        0.8111821711
C         -3.2539662742       0.8862909758        -0.4373862278
O         2.7326229279       -1.3872206663        -0.2747174869
C         -1.013699056       0.4564351311        0.6097343886
C         -2.2358193002       1.3614901494        0.5980919393
C         3.3900133829       0.9449863997        -0.1225610547
O         -0.3377882071       0.631551033        -0.610145345
C         1.9214083421       1.353692799        0.0050398089
C          3.5850346606       -0.4697262515        0.3983339229
C         1.0448479318       0.2903716715        -0.6458711301
C         1.3638189086       -1.0856951891        -0.0596502858
C         -3.5732625615       -0.5878973519        -0.1943579698
H         -1.8072638174       -1.3766038906        -1.1507152604
H         -2.468208693       -2.4319278144        0.1062871099
H         -2.8402673076       1.0095985742        -1.440157339
H         -4.1570565402       1.4930428629        -0.3814502908
H         -0.3592251155       0.6950347549        1.4494732007
H         -2.680560308       1.3277717891        1.5943236569
H         -1.9141055059       2.3844695473        0.407653774
H         4.032328925       1.631082178        0.4296735778
H         3.6936478857       0.9792041496        -1.1709969187
H         1.6626883705       1.4466715273        1.063289339
H         1.7373288503       2.3186177604        -0.4670876685
H         4.6019815485       -0.8183195841        0.2317567217
H         3.3766429614       -0.5076677699        1.4747140552
H         1.2862805317       0.247113228        -1.710087973
H         0.7786806045       -1.8606444711        -0.5504475988
H         1.1438109575       -1.1117447059        1.0129166903
H         -4.2303329008       -0.9827521622        -0.9698237399
H         -4.0849274604       -0.7016965652        0.7644532813

