31 
 
C         -2.1260499519       1.4326259837        -0.0044586927
O         -1.5769079013       0.702781169        -1.1036656355
C         -3.1279434127       -0.6524403853        0.90881247
O         3.3574546587       -0.9473950564        -0.1673248831
C         -1.2827452852       -0.6437186319        -0.8018235199
C         -2.4953855822       -1.3894512708        -0.269919785
C         2.8225160936       1.4167739326        -0.0586013069
O         -0.2534218602       -0.745550592        0.1486697999
C         1.3627512403       1.0841080552        0.2537763936
C         3.7300516996       0.294617934        0.4166764756
C         1.0198509783       -0.2930851986        -0.2966006779
C         2.0393220644       -1.3178957891        0.1869556046
C         -3.4057924154       0.7947128044        0.5071945106
H         -1.3887415491       1.4852498353        0.801354964
H         -2.2977811516       2.4390977712        -0.3797076978
H         -2.4456935077       -0.6686575993        1.7612312589
H         -4.0445213495       -1.1545800258        1.2161908276
H         -0.9458753202       -1.068632607        -1.7502033423
H         -3.2163144173       -1.4626636168        -1.0861988822
H         -2.1931171677       -2.400273839        0.0003222314
H         3.1144382689       2.3515644703        0.4202261535
H         2.9534853078       1.5433591704        -1.135542504
H         1.2102876405       1.0637066174        1.3369925809
H         0.6915195818       1.8328883956        -0.1643734009
H         4.7645549575       0.4687302158        0.1288914671
H         3.6825970491       0.2076014182        1.5091397209
H         1.0394220196       -0.2664021536        -1.3910416322
H         1.8432248684       -2.2877631517        -0.2662324452
H         1.9519338598       -1.4152944396        1.2767165903
H         -3.7832457846       1.3735712809        1.3505991268
H         -4.1617296317       0.823254303        -0.2812437701

