31 
 
C         -2.2992615508       1.2888586306        -0.5992443944
O         -1.6391017467       0.2372032065        -1.3065881443
C         -3.1416731492       -0.3568566723        1.0722840756
O         3.1865171652       -0.8756160921        -0.6505123982
C         -1.2268894896       -0.8283902127        -0.4797762462
C         -2.3903013336       -1.4320925255        0.2886461369
C         3.005347489       1.3845681209        0.2264363378
O         -0.2661771121       -0.4042064675        0.4576955844
C         1.5927213625       1.0836873717        0.7282849679
C         3.8226461012       0.1038238549        0.161468611
C         0.9803720835       -0.0230661352        -0.1112577022
C         1.91516721       -1.2287812678        -0.138406807
C         -3.5316109115       0.7797300626        0.1288375983
H         -1.6008180389       1.7416911207        0.1098735117
H         -2.5552186182       2.0308828639        -1.352049711
H         -2.5011924066       0.0324610081        1.8659876883
H         -4.0229647688       -0.7866494864        1.5470187953
H         -0.7867688902       -1.5534128541        -1.1680719385
H         -3.0599678905       -1.894934625        -0.4383177659
H         -2.0108998618       -2.2163692957        0.9423264921
H         3.5023838849       2.1011414715        0.8803618272
H         2.9594173966       1.8252374267        -0.7717239741
H         1.6317904082       0.7439405997        1.7673079565
H         0.9611850968       1.9713494162        0.6931803552
H         4.8007204559       0.2785924244        -0.2813726791
H         3.9648198463       -0.3034149652        1.1699501275
H         0.8263127269       0.3380580967        -1.1317711347
H         1.5212673435       -2.0174413409        -0.7775592869
H         2.0121138641       -1.6208855336        0.881874822
H         -3.9943848456       1.6033221024        0.673325397
H         -4.2553848203       0.4188836965        -0.6059681022

