31 
 
C         2.0581151828       -1.3438855687        -0.1909304653
C         3.087055883       1.3070492291        0.0608127483
C         -1.4715943688       1.0133548005        -0.3386084157
C         1.0959162485       -0.1886978614        0.0322222997
C         1.8099125326       0.9215112724        0.7916339288
O         -2.1053710971       -1.2494684164        0.182048749
C         -2.9455658813       1.42712317        -0.3445816116
O         3.9499608441       0.1857751917        -0.1002121389
C         -3.8236923097       0.2284709887        -0.6940215019
C         -1.305414402       -0.1555684403        0.6159198735
C         -3.4984771395       -0.9330984228        0.2276322822
C         3.3245425146       -0.8391545911        -0.8658261446
O         -0.0155716769       -0.6924266772        0.7766281336
H         2.3121365381       -1.78906275        0.7736628648
H         1.5927738862       -2.1100171087        -0.8116693024
H         3.6476573831       2.0528390269        0.619789896
H         2.8492515435       1.7197709665        -0.9262842106
H         -1.1803022548       0.704384016        -1.3433827959
H         -0.8378450061       1.844342312        -0.0320676942
H         0.7669978317       0.1813228805        -0.9392050949
H         1.1724446511       1.7993052453        0.8980460898
H         2.059270874       0.5571191653        1.790882066
H         -3.0993061393       2.2398387032        -1.0531249851
H         -3.2194334089       1.8019326128        0.6450977468
H         -3.6409956238       -0.075567059        -1.7271314739
H         -4.8815091746       0.4756972681        -0.6006149228
H         -1.6586414157       0.1371753023        1.6122928681
H         -3.7729886567       -0.6864888015        1.2593713721
H         -4.02361896       -1.8403630585        -0.0620537296
H         3.0915006076       -0.4482866641        -1.862762787
H         4.0548439942       -1.6381697315        -0.9709196442

