31 
 
C         1.52191952       -0.5368280478        0.9257925092
C         3.5709067226       0.3789035895        -0.8533881165
C         -2.3296692164       1.3152381527        0.2970300752
C         1.138617771       0.1850774937        -0.359230737
C         2.2528090575       1.1305263263        -0.7719940034
O         -1.4878641546       -0.7157922906        -0.7097276093
C         -3.6153376255       0.5930960792        0.6999022232
O         3.8837536999       -0.2442592598        0.3878384557
C         -3.8668992037       -0.5877224823        -0.2353356851
C         -1.1920132495       0.3203246772        0.2138901241
C         -2.6320050376       -1.4685663449        -0.2989932234
C         2.8854922471       -1.1907782144        0.7505759213
O         -0.04484066       0.9840374492        -0.2316613153
H         1.5595198412       0.1821686668        1.7477977911
H         0.7995999602       -1.3135706374        1.1786895771
H         4.3920266177       1.0555501753        -1.07838295
H         3.5255904711       -0.3860938739        -1.6364915738
H         -2.4437225019       1.779334144        -0.6853193543
H         -2.0691846638       2.0913122271        1.0164556493
H         0.9842178579       -0.5532867207        -1.1507003479
H         2.0263738349       1.5823337242        -1.7382371991
H         2.335566252       1.9278847295        -0.0299940536
H         -4.4558940884       1.2855343058        0.6862318642
H         -3.5148578962       0.2251433339        1.7243983743
H         -4.0949756541       -0.2253697718        -1.2402933372
H         -4.7142297115       -1.1835880031        0.1050226025
H         -1.019372531       -0.1381409793        1.1955867903
H         -2.4312801655       -1.9137019147        0.6821256121
H         -2.7423316332       -2.2699548349        -1.0258685806
H         2.832544072       -1.9673372868        -0.0208735171
H         3.2152560678       -1.6503104119        1.6794670339

