31 
 
C         2.1918198987       -1.0079896615        0.8676971125
C         3.0771559133       1.0200103312        -0.9395411408
C         -1.8398516997       -1.2136307251        -0.3263166537
C         1.170459975       -0.2145931007        0.0746473646
C         1.7295051703       1.1644643838        -0.2484499767
O         -2.0398847707       0.8255074984        0.9503236928
C         -3.170557927       -0.930924112        -1.0223630004
O         3.994035038       0.2854801739        -0.1346570868
C         -4.0408615349       -0.0564063063        -0.1235186805
C         -1.1890116491       0.0907423037        0.0941893716
C         -3.2655455821       1.1779166058        0.3009706623
C         3.516789178       -1.0316039636        0.1205780783
O         -0.0245263167       -0.1255875716        0.8549132339
H         2.331087848       -0.5356441901        1.8427872124
H         1.8410935165       -2.0282149005        1.0258253941
H         3.5307970956       1.9920275372        -1.1187442624
H         2.9573645169       0.509549204        -1.9018275455
H         -2.0003570434       -1.8081423795        0.5761571648
H         -1.1576407474       -1.7590601462        -0.9792978122
H         0.9540749344       -0.7479685258        -0.8571332101
H         1.0504727499       1.7250136973        -0.8918463286
H         1.8568354647       1.7184184297        0.684211938
H         -3.6766475947       -1.8636520612        -1.2677969833
H         -2.9820421757       -0.4065409722        -1.9630834965
H         -4.3344462752       -0.6153648642        0.7678577454
H         -4.9508191284       0.2550190456        -0.6371967923
H         -0.9573837523       0.7064791488        -0.7848961671
H         -3.0365140348       1.800049265        -0.571305393
H         -3.8205395697       1.7778596737        1.0182488818
H         3.4035855233       -1.5613418695        -0.8319693282
H         4.2847379791       -1.5329209481        0.7049730055

