31 
 
C         2.0434376453       -1.3521114405        -0.020011644
C         3.055594747       1.3108388857        -0.1407552688
C         -1.5013002574       1.1003240105        -0.1603265551
C         1.0755423855       -0.1836688927        0.0830229489
C         1.8014850697       1.0190907333        0.6700719261
O         -2.0086907014       -1.2501759785        0.1040492728
C         -2.9983680336       1.407982142        -0.2548637359
O         3.9238226424       0.1835016403        -0.1811026697
C         -3.7503149797       0.1921328859        -0.7884459901
C         -1.3169324645       -0.1477736483        0.68417567
C         -3.4189487686       -1.0251804795        0.0553437145
C         3.2860036352       -0.9338276554        -0.7906683744
O         -0.0090903259       -0.601103396        0.9183408939
H         2.3288007704       -1.6678624852        0.9861236138
H         1.5661968043       -2.194191368        -0.5219868971
H         3.6241068609       2.1257042819        0.3016120772
H         2.7867261044       1.5915686136        -1.1655491651
H         -1.1049637667       0.936200435        -1.1625984802
H         -0.9670686972       1.9325804279        0.2948991263
H         0.7121180628       0.0527162767        -0.9179457334
H         1.1650108971       1.9030639085        0.6773509136
H         2.0805401091       0.7894495832        1.7010710805
H         -3.1582209299       2.2752849588        -0.8939328893
H         -3.378163235       1.661066863        0.7384594298
H         -3.4579632702       -0.0012050946        -1.8230800282
H         -4.8278082976       0.3581726616        -0.7711719717
H         -1.7544818984       0.026171561        1.6743172636
H         -3.791104565       -0.8888827958        1.0770740504
H         -3.8558995733       -1.9334857303        -0.3533277543
H         3.0222901083       -0.6755046087        -1.8224925614
H         4.019088922       -1.7369482954        -0.8130412629

