31 
 
C         2.2451750349       -1.1097370293        0.7399073713
C         3.0280689288       1.1488098904        -0.8244370049
C         -1.9828275938       -1.2802735273        -0.2851470633
C         1.1876272291       -0.2982847076        0.016242036
C         1.6653966739       1.1379888603        -0.1477767625
O         -1.9163681999       0.821432272        0.9067676505
C         -3.3042706003       -0.8866024312        -0.9433782657
O         3.9778026328       0.387876915        -0.0851272638
C         -4.0391705153       0.1142407945        -0.0552287429
C         -1.1814435361       -0.0399693214        0.0577905199
C         -3.1206362571       1.2751898634        0.2814179666
C         3.5780022604       -0.974723628        0.0191098588
O         -0.0200043638       -0.3700601536        0.7783530623
H         2.3440011948       -0.736679599        1.7618126812
H         1.9559687482       -2.1601058586        0.7830058313
H         3.4234023125       2.1597621646        -0.8905227576
H         2.9516893035       0.7384755638        -1.8376855196
H         -2.1660347891       -1.8241904619        0.6445766708
H         -1.3818390343       -1.9135086608        -0.9391799758
H         1.0122384223       -0.7415775591        -0.9703981208
H         0.9617490749       1.7230716651        -0.7412388996
H         1.7460035231       1.595637108        0.8407286677
H         -3.9158560594       -1.769051004        -1.1266933736
H         -3.1008264078       -0.4252982174        -1.913594081
H         -4.3530139298       -0.3706741293        0.871913115
H         -4.9316157198       0.4989972243        -0.5495777263
H         -0.9196147663       0.50994912        -0.854613203
H         -2.8597479788       1.8275669744        -0.628228177
H         -3.5810358406       1.9649512721        0.9848673175
H         3.5090382573       -1.4045163563        -0.9864566583
H         4.3674389956       -1.4899330431        0.5612578469

