31 
 
C         2.0625056639       -1.3409115645        0.1655047358
C         2.9375794448       1.3183433101        -0.3612918699
C         -1.5264542271       1.156449174        0.0833093867
C         1.0397920345       -0.2157984544        0.1347682296
C         1.7176950226       1.0914761265        0.5203722971
O         -1.8922187484       -1.2474912413        0.0092435943
C         -3.0238041265       1.3787401135        -0.1438891467
O         3.859969391       0.2383241076        -0.2685256144
C         -3.6237236997       0.1969412555        -0.8988787678
C         -1.3215452606       -0.1841175026        0.7661098734
C         -3.3013362724       -1.0904124442        -0.1637011225
C         3.2633251252       -0.9821234045        -0.6949372031
O         -0.0043636887       -0.5719565974        1.0494195332
H         2.3877770954       -1.4974096366        1.1966125649
H         1.614281378       -2.266331662        -0.1971746828
H         3.4750586054       2.2136097145        -0.0571512065
H         2.6304259192       1.4368807247        -1.406729555
H         -1.0029814656       1.1781925919        -0.8734495109
H         -1.1176355318       1.9403335903        0.7194035223
H         0.6351810252       -0.1441573597        -0.8777223638
H         1.0426148561       1.9388069486        0.4147786047
H         2.0295634831       1.0289794988        1.5655157244
H         -3.1813707847       2.3100331723        -0.6861891042
H         -3.5233647737       1.4777475104        0.823492189
H         -3.2066096835       0.1462984109        -1.9072748321
H         -4.7057109374       0.2972675166        -0.9890180099
H         -1.8288387497       -0.165329268        1.7375218215
H         -3.7809098056       -1.0912455725        0.8219374952
H         -3.6373981168       -1.9674183481        -0.7122430682
H         2.962231661       -0.8850426023        -1.7441409298
H         4.0342341667       -1.7462631083        -0.6265815842

