31 
 
C         2.2399883139       -1.2784798828        -0.467644819
C         2.927101932       1.3281198531        0.4677999485
C         -1.5035974411       0.7942588087        -0.732671776
C         1.1409031942       -0.2582535564        -0.2285693104
C         1.5834820733       0.7245305493        0.8487845761
O         -2.2068388511       -1.2420626848        0.3421302369
C         -2.8885747702       1.3976062771        -0.4885505214
O         3.9148788372       0.3216790888        0.2732512107
C         -3.9384718184       0.2971426685        -0.3719461862
C         -1.2095060193       -0.2398110006        0.3418197821
C         -3.496053076       -0.7168398343        0.6658305029
C         3.545995785       -0.5647406862        -0.7783092392
O         -0.028261562       -0.9853976827        0.1448913674
H         2.363048653       -1.8885751064        0.4298354547
H         1.9742758429       -1.9346874801        -1.2969270659
H         3.2985288296       1.9800039342        1.2551069853
H         2.829271718       1.915655568        -0.4522087928
H         -1.4669661664       0.2950013281        -1.7042454792
H         -0.7493304001       1.5798562098        -0.7213918007
H         0.9558708443       0.28125071        -1.1616306484
H         0.85670354       1.5278534717        0.9778628677
H         1.6766108467       0.1911546142        1.7977794211
H         -3.1375631273       2.0908687774        -1.2908225549
H         -2.866960831       1.9733553987        0.4407610499
H         -4.059065701       -0.2083185312        -1.3327004914
H         -4.9073504047       0.7068827606        -0.0853488205
H         -1.1898200618       0.2375947379        1.3314642757
H         -3.4556892218       -0.2553022553        1.6584437196
H         -4.1644756985       -1.5735337738        0.708936161
H         3.4548505059       0.004633977        -1.7100573223
H         4.3617292349       -1.2757182584        -0.8865847317

