31 
 
C         2.3246013718       -1.2887842421        0.4166606403
C         2.836355122       1.3641569292        -0.4896031403
C         -2.3224155174       -1.3891672091        -0.0576806313
C         1.1991770636       -0.4802158406        -0.2019343533
C         1.447964518       1.0052109221        0.0201605639
O         -1.4893829249       0.7739977283        0.6189370893
C         -3.6272391363       -0.7499017607        -0.5321790594
O         3.8458467091       0.5887272545        0.147820931
C         -3.8754900691       0.5552776085        0.220066585
C         -1.190576016       -0.3868549387        -0.1460330307
C         -2.6494949347       1.4453396793        0.1230802072
C         3.66490414       -0.79968722        -0.1087620959
O         -0.0233582828       -0.9517272645        0.3753584762
H         2.2941671142       -1.1683308523        1.5018514941
H         2.2035145625       -2.3471770084        0.1841938963
H         3.0676860593       2.4063480407        -0.2819905123
H         2.8943086291       1.204975902        -1.5723896053
H         -2.4079269763       -1.7053160038        0.9848409163
H         -2.0675476563       -2.2607323374        -0.6601918864
H         1.1637598999       -0.6764963876        -1.2797869187
H         0.7086015239       1.6093982178        -0.5054655051
H         1.3780251296       1.2276721267        1.0871571237
H         -4.4571347314       -1.4420681668        -0.3960319409
H         -3.5536594573       -0.5384886815        -1.6023255548
H         -4.0779333149       0.3465570939        1.27299528
H         -4.7372956662       1.0846580485        -0.1873050166
H         -1.0267979812       -0.0797712236        -1.1884971643
H         -2.4742425351       1.7393005343        -0.9182865118
H         -2.7554826707       2.3469877021        0.7220964412
H         3.7363990512       -0.9763497614        -1.1878049966
H         4.4867279763       -1.3168338897        0.380870279

