31 
 
C         1.7511597896       -1.1338665694        0.5409095145
C         3.1055822039       1.031972318        -0.7392283673
C         -1.8979857769       1.3144782288        0.0390187941
C         0.9922306778       0.1492295988        0.2386529532
C         1.9572027651       1.323531129        0.214569048
O         -1.4334697143       -1.0512563269        0.1846767217
C         -3.3469145044       1.0197150457        -0.3477995583
O         3.785495492       -0.1667358037        -0.3810522123
C         -3.4355558962       -0.3538935849        -1.0069591322
C         -1.3403487673       0.1788746124        0.881249098
C         -2.7908316623       -1.3934668121        -0.10885738
C         2.910562292       -1.2891252602        -0.4318865528
O         0.0002980206       0.395073842        1.2445042193
H         2.1379675124       -1.0826158632        1.5613560333
H         1.0914407201       -1.9980349102        0.4668405141
H         3.845705189       1.8286120508        -0.715602614
H         2.7304069099       0.9366934311        -1.7645006446
H         -1.281440601       1.4156629373        -0.8577946853
H         -1.8207163572       2.238605032        0.6118535416
H         0.5140814967       0.0634302183        -0.7389632798
H         1.4395097987       2.2312289643        -0.0988058291
H         2.351273455       1.4826762037        1.2210352979
H         -3.7291830441       1.7964931338        -1.0088230123
H         -3.9672495785       1.0257797642        0.5527018579
H         -2.9143133544       -0.3422150786        -1.9669617683
H         -4.4722239072       -0.6361458864        -1.1926353041
H         -1.89228228       0.0989990464        1.8234986115
H         -3.3467714937       -1.4796297474        0.831349621
H         -2.7566311145       -2.3724848683        -0.5812348056
H         2.5340203511       -1.4017954633        -1.4549226296
H         3.5109303779       -2.1626443822        -0.1879130504

