31 
 
C         2.3199474014       -1.2420878124        0.5237654007
C         2.8858465302       1.3215367298        -0.5995790977
C         -2.2382063601       -1.365196802        -0.1658026528
C         1.2052107684       -0.4477210689        -0.1291673591
C         1.5051324099       1.0413789819        -0.0257921636
O         -1.6188682903       0.7845635228        0.7399626659
C         -3.5427254717       -0.7768257666        -0.702646274
O         3.8883434196       0.562111308        0.068211866
C         -3.9445665359       0.4410285052        0.1253188398
C         -1.1757789495       -0.2884132445        -0.0799284452
C         -2.7832876283       1.415665833        0.2014125284
C         3.6580450255       -0.8354898149        -0.0750023108
O         -0.0192525427       -0.8015485279        0.5209148455
H         2.3238859028       -1.0368015571        1.5965462463
H         2.1625584552       -2.3111153285        0.3778502068
H         3.1550682942       2.3679164095        -0.4759999844
H         2.9077918556       1.0810896006        -1.6685448037
H         -2.3852069025       -1.7690136313        0.8389000547
H         -1.8709459857       -2.1671642696        -0.806327905
H         1.1319108491       -0.7300230093        -1.1852905308
H         0.7621643002       1.6289947499        -0.5670623586
H         1.4777732117       1.3368109668        1.0255220906
H         -4.3289127637       -1.5306571386        -0.6944238124
H         -3.3972109588       -0.4715009194        -1.7423887424
H         -4.2139771414       0.1319051852        1.1377707253
H         -4.8075091468       0.945010456        -0.3108738645
H         -0.9463091251       0.1052175877        -1.0782467365
H         -2.5484099372       1.8052610525        -0.7958303579
H         -3.0015112538       2.255609        0.8569872322
H         3.6913426929       -1.0961554064        -1.1387630497
H         4.4789808768       -1.3393415915        0.4296547469

