31 
 
C         0.693382693       0.2111898566        0.0819027585
C         3.5795069078       -0.1835438785        -0.4348578608
O         -2.1649875436       0.9575737625        1.0044451957
C         1.4040507387       -1.0688216922        -0.3847068001
C         1.7371835022       1.2907917298        0.3582903252
O         -0.0411561986       0.0075650565        1.2877866391
C         -1.895402204       -1.3933932837        0.3775544324
C         -2.1494307334       -1.0444392811        -1.0880072935
C         -1.4320942875       -0.2233813988        1.248867735
C         -3.0549477551       0.1828302366        -1.1482085945
C         -2.4583536794       1.3252547757        -0.3455213645
C         2.8738888438       1.1623027745        -0.6506737369
O         2.710358013       -1.1503292398        0.1524633983
H         0.0327639083       0.5493419888        -0.7119357331
H         3.9709790662       -0.5748712703        -1.3784549162
H         4.4064978968       -0.0739216263        0.2645476052
H         0.8668321367       -1.9489141323        -0.0418026352
H         1.4479673431       -1.0965447232        -1.4796171752
H         2.1220157476       1.1356485492        1.3676367665
H         1.2720776742       2.2748684135        0.3270576733
H         -1.1930713064       -2.2167157527        0.4924518502
H         -2.8422467443       -1.7267421084        0.8078404861
H         -1.2185073537       -0.8549370387        -1.6245167975
H         -2.6241093177       -1.8915805541        -1.5820329072
H         -1.6565628415       -0.4612202053        2.2869551711
H         -3.2098290401       0.5142351957        -2.1749548273
H         -4.03243519       -0.0700536744        -0.7308202351
H          -3.1660879609       2.1478311757        -0.2635691059
H         -1.5628708904       1.716469641        -0.8337220525
H         2.4707028158       1.2257990335        -1.6631580708
H         3.5927197595       1.9723186702        -0.5432759302

