31 
 
C         0.7922972996       0.1105175699        -0.1421089202
C         3.7467568556       0.0292779026        -0.0694181212
O         -2.3541516879       -0.096223667        1.3865694548
C         1.7089366507       -1.1134608812        -0.3043149203
C         1.6418618709       1.3369139123        0.1805595146
O         -0.1228413379       -0.0505779775        0.9321147254
C         -1.6831734751       -1.2513444229        -0.6308500579
C         -2.2972512204       -0.1380728819        -1.4856862046
C         -1.3069918416       -0.8193496312        0.7894389781
C         -3.3653147752       0.6101370795        -0.6926459046
C         -2.7777114666       1.0405095293        0.6375220916
C         2.9598220227       1.2433740091        -0.5821096088
O         2.8860428614       -0.9740333002        0.4673315213
H         0.2633130651       0.2769819495        -1.078851943
H         4.3560365206       -0.4054755684        -0.8672825704
H         4.4030579008       0.3174042504        0.7499381122
H         1.2040767788       -2.0109491181        0.0490606829
H         1.9667584859       -1.2574337043        -1.3597379603
H         1.8387098021       1.3410068153        1.2537033737
H         1.0942639578       2.245904165        -0.0623166251
H         -0.8317371748       -1.7149974767        -1.1285395724
H         -2.4302201171       -2.0364047832        -0.4998222853
H         -1.5380323282       0.5774774508        -1.8050322684
H         -2.7181459234       -0.5734610557        -2.3915517666
H         -1.195229538       -1.7049373727        1.4158601864
H         -3.7195681332       1.4821661962        -1.2424991935
H         -4.2233412292       -0.0394692677        -0.5056516107
H         -3.509793031       1.5480850397        1.2612186908
H         -1.9282493997       1.7136889246        0.4833022943
H         2.756017658       1.1448457886        -1.6500256579
H         3.5565109491       2.1444815258        -0.4542844347

