31 
 
C         1.0324421208       -0.1502286561        -0.5495933372
C         3.7566473138       -0.1456367531        0.5991728439
O         -1.950816816       -0.0655637999        -1.3648244505
C         1.8140404471       -1.3322697221        0.0233231259
C         1.8597407031       1.1316303039        -0.3967922009
O         -0.2024120073       -0.0583705231        0.1564235411
C         -2.046105497       1.379699264        0.5795198872
C         -2.8672877192       0.3334064171        1.3308886961
C         -1.178710221       0.7243946038        -0.484029667
C         -3.6483456291       -0.5112963624        0.3256234615
C         -2.6956493849       -1.090922458        -0.7067213813
C         3.3406560636       0.7905684589        -0.5426533527
O         2.6581765741       -0.9187443773        1.0807448177
H         0.8220982714       -0.3493855008        -1.6053150505
H         4.5590677089       -0.8167641587        0.2789147053
H         4.1061752826       0.4284460692        1.4556745747
H         1.1196739553       -2.0651409547        0.4284032118
H         2.4060031782       -1.811520893        -0.7626258351
H         1.671411751       1.5354000595        0.5998716148
H         1.5582414435       1.8835253854        -1.1238221133
H         -1.4041689673       1.9481336311        1.251751225
H         -2.7148211272       2.0815304544        0.0775109849
H         -2.1997742283       -0.3106204646        1.9070780891
H         -3.5402467561       0.8187673808        2.0368758806
H         -0.7081500973       1.4743389379        -1.1207126006
H         -4.1805252338       -1.3239908426        0.8209947011
H         -4.3894718626       0.1105578209        -0.1824629538
H         -3.2302029256       -1.6159885516        -1.4951969906
H         -2.0038353591       -1.7915254368        -0.2315994895
H         3.5086005141       0.3136600796        -1.5099940494
H         3.9568235044       1.6874645884        -0.5202148883

