31 
 
C         0.8762155874       0.10466537        -0.3542302892
C         3.7813755859       -0.2492100822        0.0465078047
O         -1.5293088337       1.2905804984        0.1449559356
C         1.7957148471       -0.9270475188        -1.0057809676
C         1.6769101716       0.9472848404        0.6441107826
O         -0.1797531709       -0.6143136796        0.2786027147
C         -2.3200993567       -0.7140131355        1.2888953004
C         -3.1193283124       -1.1128403471        0.0509673051
C         -1.1490716762       0.182152103        0.9252265829
C         -3.5003102331       0.1441581976        -0.7278436873
C         -2.2485046442       0.9442123139        -1.0419970399
C         3.0974820507       1.1226440291        0.1139776068
O         2.8387381267       -1.306273912        -0.1281064459
H         0.4618669717       0.7491126676        -1.1320442777
H         4.5137319659       -0.2793779666        -0.7657318625
H         4.2931105796       -0.467035351        0.9825339767
H         1.2279528146       -1.8239810119        -1.2439806446
H         2.2160443062       -0.5261520535        -1.9333592476
H         1.7085861175       0.4139309368        1.5967933337
H         1.1924019072       1.90733897        0.8136242346
H         -1.9379272713       -1.5843632304        1.8210373512
H         -2.9585478992       -0.1563042329        1.9764548841
H         -2.5139839255       -1.7635030768        -0.5833047809
H         -4.0060768507       -1.6747032639        0.3419720728
H         -0.7117641705       0.6285675834        1.8216575518
H         -4.0079679305       -0.1060975679        -1.6597392776
H         -4.1797826131       0.7595162086        -0.1332900934
H         -2.4829151572       1.8896351698        -1.5258851885
H         -1.599105859       0.3671269059        -1.7077738983
H         3.0603114794       1.5814935861        -0.8758093364
H         3.6792403929       1.7872530493        0.7500825994

