31 
 
C         0.8183134559       0.1706160257        -0.2018714118
C         3.760082024       -0.0170036216        0.0231804868
O         -2.3220726319       -0.4283145171        1.3522648944
C         1.705429656       -1.0679090635        -0.4078104129
C         1.6857738688       1.3421272619        0.2511046673
O         -0.1596593724       -0.026690974        0.8089749186
C         -1.6704979043       -1.06851707        -0.8809551311
C         -2.3215606608       0.1940319864        -1.4475470499
C         -1.2518746713       -0.904855782        0.5792469584
C         -3.4330501463       0.6620311138        -0.5112141216
C         -2.8742849929       0.8053192098        0.8922347913
C         3.040653779       1.2554159856        -0.444550521
O         2.8399839827       -1.0266778429        0.4356426414
H         0.3432272213       0.4209822599        -1.1507449887
 H         4.4027978289       -0.4146520822        -0.7677198903
H         4.3744982097       0.190767605        0.897520386
H         1.1591237504       -1.9760335177        -0.1583505882
H         2.0180426522       -1.137099047        -1.4557356706
H         1.8221093727       1.2654595357        1.3309331829
H         1.1816628874       2.284285554        0.043520505
H         -0.8304908068       -1.4017773796        -1.4896739653
H         -2.4013385761       -1.8794071262        -0.8881834031
H         -1.58619114       0.9953521963        -1.5469630335
H         -2.7102752808       -0.0081946211        -2.4449978701
 H         -1.0105981561       -1.8796592817        1.007441482
H         -3.8467936547       1.6158201608        -0.8392384554
H         -4.2451011634       -0.0685495096        -0.5000279223
H         -3.6483272767       1.0627289365        1.6114178107
H         -2.1035332605       1.5801727727        0.9185187942
H         2.8937481947       1.2369699643        -1.5260676815
H         3.6565558113       2.1246328678        -0.2221524016

