31 
 
C         0.852874031       0.0502744328        -0.3156582423
C         3.7846317074       -0.1723509594        -0.0050831418
O         -1.472150216       1.234741165        0.3422132332
C         1.7969886058       -0.9488304001        -0.9841578179
C         1.6500335101       0.939514718        0.6457630371
O         -0.1397250793       -0.7072262701        0.3691352084
C         -2.3900939707       -0.9003377942        1.1240727401
C         -3.1287241454       -1.067723108        -0.1995458833
C         -1.189620168       0.0201221351        0.9876811719
C         -3.4610762084       0.3146239813        -0.7541996883
C         -2.1790165358       1.1129608251        -0.8976472225
C         3.0449905423       1.1697959479        0.0707484077
O         2.8834548581       -1.2710148593        -0.1367233005
H         0.3913557881       0.6650361899        -1.087786896
H         4.4905464047       -0.1814754598        -0.8409576601
H         4.335872104       -0.35683159        0.9155721024
H         1.2632820841       -1.8729890743        -1.1949312851
H         2.1698763874       -0.540350683        -1.9286934952
H         1.7327573999       0.4181183582        1.6019976302
 H         1.1261235097       1.877246905        0.8203746965
H         -2.0437746799       -1.8537465103        1.5209877764
H         -3.0609741303       -0.4567323018        1.8622664959
H         -2.497278425       -1.6031048598        -0.9121763639
H         -4.0308337417       -1.660347811        -0.0534849553
H         -0.8448861147       0.3345119389        1.9769989771
H         -3.9462688767       0.247397679        -1.7281550173
H         -4.1420969785       0.8354545444        -0.0770145072
H         -2.369667034       2.1339584609        -1.2202451891
H         -1.5386166163       0.6315617121        -1.6427386893
H         2.9580853725       1.6156459253        -0.9219638522
H         3.6175596156       1.8655647622        0.6814937304

