31 
 
C         0.849689429       0.4923066886        -0.1413832385
C         3.4962894285       -0.8352364923        -0.0521324335
O         -1.7463364498       1.2179042404        -0.7208647038
C         1.1688192222       -1.0004373118        -0.3208929679
C         2.1385374528       1.2317462779        0.2227482398
O         -0.0878156463       0.7102457827        0.9053550825
C         -2.3904757279       0.1432126112        1.383534577
C         -2.6329546432       -1.1669924703        0.6444864955
C         -1.4470580733       1.0758269666        0.6378333188
C         -3.0637787618       -0.8507967092        -0.7843650035
C         -2.0068028916       0.0112306515        -1.4477696624
C         3.3064925053       0.6087885952        -0.5357661989
O         2.2839783263       -1.3851016445        0.4605178722
H         0.4602193824       0.8940184115        -1.0754799734
H         3.8699505551       -1.4723873185        -0.8592382478
H         4.2040961282       -0.8722436002        0.774214411
H         0.3287601857       -1.605578095        0.0109424091
H         1.3606170842       -1.2240727733        -1.3767717822
H         2.3005249523       1.123970362        1.2965221406
H         2.0328833235       2.293353956        0.0063035224
H         -1.9842187289       -0.0183048376        2.3809407113
H         -3.3408402071       0.6700424474        1.4952069548
H         -1.7221242365       -1.7689566066        0.6305868488
H         -3.3921491205       -1.7521794037        1.1617434689
H         -1.5586388641       2.0859170138        1.0354979885
H         -3.1970761835       -1.7587322474        -1.3726942648
H         -4.0162552927       -0.3160423584        -0.775499017
H         -2.3170841744       0.3396036621        -2.4370041735
H         -1.0836245875       -0.564203929        -1.5595828842
H         3.0968813247       0.6297159998        -1.6069832151
H         4.2264382886       1.1693961309        -0.3805852748

