31 
 
C         0.8250547281       0.5435801637        0.0311006692
C         3.4676089712       -0.7237778942        -0.3769102675
O         -1.8427311553       1.3824852802        -0.1038812007
C         1.1246729104       -0.8944397588        -0.4267836733
C         2.1370176359       1.2251710534        0.4153138883
O         -0.0200502539       0.5894138175        1.1706814635
C         -2.15901643       -0.6580745019        1.2503898717
C         -2.5136109593       -1.4347009497        -0.016417348
C         -1.4391974018       0.6811371512        1.0404742257
C         -3.1332695913       -0.479739769        -1.027927935
C         -2.1467361574       0.6386990975        -1.2881941999
C         3.228573972       0.7821479087        -0.5539177542
O         2.3198348203       -1.3811524324        0.1547256207
H         0.3686955624       1.1024643618        -0.7846577312
H         3.744890301       -1.1903188203        -1.3269138777
H         4.2641957288       -0.9039010882        0.3428493718
H         0.3312766152       -1.5616160365        -0.1013802607
H         1.19523131       -0.9435274529        -1.5196102773
H         2.3979470647       0.9196953622        1.4299007846
H         2.006947391       2.305767617        0.4144249793
H         -1.5579338835       -1.2517522937        1.9377086951
H         -3.0936055615       -0.4221794303        1.7640063078
H         -1.6334241306       -1.898987095        -0.4631642717
H         -3.1991163449       -2.2421954223        0.2381594597
H         -1.7098416909       1.3322819156        1.8706955452
H         -3.3566994305       -0.9840002351        -1.9679539326
H         -4.0651784283       -0.0630690704        -0.6391292804
H         -2.539726693       1.3753266359        -1.9851900222
H         -1.2330132438       0.2181761584        -1.7197157828
H         2.9157938282       1.0025415118        -1.5764645084
H         4.1570215166       1.3231112156        -0.381370559

