31 
 
C         1.028211906       0.3404509807        -0.4297693019
C         3.7797231202       -0.2759533458        0.4493023133
O         -2.0047908403       -1.4171910528        -0.1776108664
C         1.8976692626       -0.8598463563        -0.8276522271
C         1.7762787784       1.1974675907        0.5873432188
O         -0.1907688732       -0.0761214185        0.1735618611
C         -2.024387196       0.8094687643        -1.1364764991
C         -2.8266051889       1.3259712472        0.0559597204
C         -1.2083621       -0.4193367564        -0.750999802
C         -3.6494846393       0.1826936882        0.6459174579
C         -2.7360622231       -0.9853055645        0.9735952427
C         3.2690214261       1.160744362        0.2748202272
O         2.746809379       -1.2379235723        0.2388685995
H         0.811833556       0.9317528644        -1.3252284385
H         4.6091139299       -0.480185476        -0.2341457424
H         4.1236954937       -0.4375423849        1.4694799437
H         1.2706743594       -1.7199978282        -1.056616005
H         2.4932032296       -0.6228610983        -1.7156546614
H         1.5993145323       0.7724463868        1.5769068691
H         1.3842309878       2.2128108117        0.5861697401
H         -1.3540131867       1.5761159425        -1.5262651063
H         -2.6996359395       0.5217589729        -1.9450247808
H         -2.142671249       1.7110308026        0.8152882216
H         -3.4689258468       2.1503767352        -0.2513763253
H          -0.7617060757       -0.8801007889        -1.6351636694
H         -4.1708893714       0.4960321906        1.5508304547
H         -4.4021874333       -0.143243952        -0.0759650498
H         -3.29883057       -1.8560233082        1.3017806482
H         -2.0335610747       -0.7084334961        1.7637031007
H         3.4356986076       1.5055824806        -0.7472893001
H         3.8270952394       1.826976579        0.9298841564

