31 
 
C         0.7350591563       0.0548550801        -0.0012225134
C         3.6785811943       0.031320928        -0.2805346301
O         -2.3133344905       0.4761183269        1.2795819959
C         1.6555824874       -1.1603874917        -0.207527992
 C         1.5905235508       1.3040414347        0.1915549595
O         -0.0763334491       -0.0950482192        1.1584498059
C         -1.7736722149       -1.4331063004        -0.1363182983
C         -2.2609249446       -0.6669909485        -1.3740140934
C         -1.4011261903       -0.5801079605        1.0854834434
C         -3.1788732258       0.4856647576        -0.9742492263
C         -2.5229042818       1.2919242822        0.1305534188
C         2.8089144058       1.2168783852        -0.7224581245
O         2.9152630455       -0.9595507767        0.4041293231
H         0.1165324738       0.1794080931        -0.8866995481
H         4.1795539361       -0.4263603059        -1.1386713312
H         4.4363091917       0.3560320934        0.4303475322
H         1.2183046704       -2.0411766827        0.257369785
H         1.7869649579       -1.3599094873        -1.2772099641
H         1.91208884       1.3371279989        1.2336918301
H         0.9987302396       2.1972099021        -0.0029374696
H         -0.9475552263       -2.0985699236        -0.384987412
H         -2.5917017655       -2.0691907756        0.2056243817
H         -1.4252722749       -0.2715291594        -1.9512092522
H         -2.7827418534       -1.3618885775        -2.0314846297
H         -1.5138846259       -1.1901328328        1.9798350208
H         -3.392139434       1.1260452101        -1.8301034374
H         -4.1300645735       0.1004287395        -0.6003930855
H         -3.1548271821       2.1133648199        0.4602533887
H         -1.5691051405       1.7144997471        -0.2047664123
H         2.4787299131       1.0858015762        -1.7547203427
H         3.3956418106       2.1328290665        -0.6897981222

