31 
 
C         -2.0442306632       1.4805099284        0.1454695954
C         1.099829898       -0.0690526855        -0.9204247452
C         -1.1731314936       0.6734631724        -0.7977712157
C         3.3767112194       -0.1117255916        0.8418196273
C         -3.2295940879       -0.4189220855        0.8750785733
O         -2.4625087732       0.7182568768        1.2694434281
C         2.3212198489       -1.2092583199        0.9546487306
C         2.7435902854       1.1551684        0.2975731284
C         1.6415485505       -1.3901357628        -0.4004028994
C         -2.4114987222       -1.3538254695        0.0017342726
O         2.1041133867       0.9256198143        -0.9651604807
O         0.0367024115       0.3679102877        -0.0992367513
C         -1.8947494491       -0.6023211496        -1.2236990258
H         -2.9200422326       1.8407008898        -0.4047726123
H         -1.4920202509       2.3343531915        0.5332448412
H         0.7570127684       -0.1667700105        -1.9501442634
H         -0.9392893296       1.2955215826        -1.6661485188
H         4.1730467483       -0.4329837146        0.166029412
H         3.8282852113       0.1058574401        1.8101370392
H         -3.5479020058       -0.9055445889        1.7945901646
H         -4.1191882078       -0.0760553311        0.3337703143
H         1.579888621       -0.926490539        1.7058291402
H         2.7690348801       -2.1480113512        1.2784897347
H         3.486396185       1.9274181473        0.1108705267
H         2.0100586462       1.5480293469        1.0062065478
H         2.3650263309       -1.7630451061        -1.1282276525
H         0.8171908778       -2.1020851406        -0.349477555
H         -3.0290734298       -2.2005280216        -0.2981509073
H         -1.5747222186       -1.7442913368        0.5846426072
H         -1.2297324314       -1.229387395        -1.8188586999
H         -2.7339775738       -0.3180304779        -1.8628363562

