31 
 
C         -1.6932083153       1.4751920122        0.0071496959
C         1.078873565       -0.8079765591        -0.5444836754
C         -0.9941476814       0.36110172        -0.7482060628
C         3.4122880604       0.5521221427        0.4509557377
C         -3.4224444012       0.0609202039        0.7480466885
O         -2.407710759       0.9873725452        1.1349532212
C         2.6710175341       -0.4259866965        1.3599439316
C         2.4554517668       1.1364948836        -0.5714780337
C         1.9515856226       -1.469923184        0.5070900176
C         -2.8206906289       -1.1547467875        0.0657807958
O         1.816363255       0.105769122        -1.3348746464
O         0.016922132       -0.1639526229        0.119291397
C         -1.996095591       -0.7199106035        -1.1445545384
H         -2.381921584       1.9877527437        -0.6729475819
H         -0.9645104278       2.1915330828        0.3826405611
H         0.6920610404       -1.5375887553        -1.2574290624
H         -0.5207678929       0.794552231        -1.6309721699
H         4.2168835646       0.0312751005        -0.07391806
H         3.8599732642       1.3635372176        1.025459937
H         -3.9507858724       -0.2112116873        1.6593924977
H         -4.1241429254       0.5657416419        0.0736296851
H         1.9457996121       0.1193498357        1.9674302201
H         3.3621100371       -0.9166329065        2.0444639044
H         2.974528999       1.7573054581        -1.2983076192
H         1.6927765709       1.7466431102        -0.0796409675
H         2.6835420583       -2.0868915214        -0.0169546819
H         1.3308620234       -2.1287624255        1.1135154976
H         -3.6203026258       -1.8311740296        -0.2365231861
H         -2.1901882741       -1.6874496219        0.7800571118
H         -1.4807417464       -1.5675981105        -1.59567173
H         -2.6562393806       -0.2993985395        -1.9068698844

