31 
 
C         -1.9286741808       1.4898449815        0.0817376221
C         1.0925165026       -0.3195570675        -0.8572427149
C         -1.128598454       0.5534341935        -0.8028845109
C         3.4280411614       0.1268940351        0.7693560567
C         -3.3197254783       -0.2402943859        0.8667040221
O         -2.4438958666       0.8272649652        1.2287706915
C         2.4764332579       -1.0141345876        1.1210177215
C         2.6692408486       1.2256774643        0.0488178018
C         1.7647808834       -1.4817049678        -0.1464499277
C         -2.5888902076       -1.2950731613        0.054781026
O         2.007502345       0.7287921511        -1.1218593071
O         0.0291317013       0.1530717403        -0.0626717501
C         -1.9692087702       -0.6600585078        -1.1888389402
H         -2.7526606655       1.9122392265        -0.5031566635
H         -1.2973231608       2.2992470055        0.4435749388
H         0.7230934056       -0.621798195        -1.8368500515
H         -0.8135522499       1.1081887811        -1.6906761076
H         4.2244475535       -0.2434312488        0.1191624285
H         3.8937360934       0.5444409218        1.6624706127
H         -3.7052524471       -0.6479226204        1.7988066677
H         -4.1576855355       0.168969986        0.2902752482
H         1.7425097148       -0.6650102164        1.8509415065
H         3.0159068645       -1.8442140266        1.5756075775
H         3.3359802509       2.0088183279        -0.3049852277
H         1.9309758669       1.678435417        0.7156242462
H         2.4909195463       -1.9159325469        -0.8363669746
H         1.0091564102       -2.2380221558        0.0664974315
H         -3.2874037796       -2.0840561977        -0.224071602
H         -1.811210328       -1.7457717525        0.674457896
H         -1.3598618373       -1.3803732571        -1.7358044381
H         -2.7597034452       -0.3223473015        -1.8631702796

