31 
 
C         -1.7434864       1.3218468719        -0.3339131887
C         1.152375412       0.3569750784        1.1202146267
C         -0.7525630806       0.17570068        -0.4809814465
C         3.3253686901       -0.3601317319        -0.69333429
C         -3.5610980791       -0.1317059243        0.032772937
O         -2.8208716562       0.9830598516        0.5290025122
C         2.5122065396       0.8864647179        -1.0286544387
C         2.4434556229       -1.3395962023        0.0526913905
C         1.7898680985       1.4157115299        0.2166044395
C         -2.6874632696       -1.3700593404        -0.0584278284
O         1.9982094543       -0.7642726364        1.2838944978
O         -0.1469862043       -0.09876062        0.7847478965
C         -1.4765772949       -1.0831116862        -0.9446686175
H         -2.1319276926       1.5891121398        -1.3233258052
H         -1.2587141715       2.1928606853        0.1035644381
H         1.0593070405       0.7649738837        2.1250522795
H         -0.0061743197       0.4590154709        -1.216362814
H         4.1763495991       -0.1031669208        -0.0583186603
H         3.7126021765       -0.8267757522        -1.599184251
H         -4.3918655456       -0.2764123909        0.7202453475
H         -3.9639121055       0.1218986489        -0.9549177815
H         1.8068671882       0.6381247368        -1.8218385324
H         3.1563296815       1.6738149568        -1.4195760282
H         2.9790091612       -2.2460313599        0.3255143
H         1.5756080274       -1.6219067782        -0.5534501996
H         2.5293106369       1.9086027158        0.8502283094
H         1.0474204277       2.1698327279        -0.0430191808
H         -3.2731493794       -2.1956128095        -0.4631534918
H         -2.3651789438       -1.653999506        0.9448453842
H         -0.7796632028       -1.9212395534        -0.9525085453
H         -1.8108754106       -0.9178534834        -1.971552259

