31 
 
C         -1.7780043532       1.2322047045        -0.8338487721
C         1.1147909827       0.1766335226        1.1905661162
C         -0.7103766257       0.2020534107        -0.501613237
C         3.230765009       -0.3734232534        -0.7405502881
C         -3.5271235595       -0.1075294501        -0.0081854136
O         -2.8820221057       1.1637664578        0.0580572921
C         2.734274852       1.0591696702        -0.5838907725
C         2.1003879612       -1.3446646704        -0.4671119494
C         2.1659162338       1.2202440637        0.8221966305
C         -2.5759593351       -1.2242603711        0.384288902
O         1.4753209868       -1.1302844924        0.8079476954
O         -0.193971804       0.5619788519        0.781747793
C         -1.3341988585       -1.1932290257        -0.505642645
H         -2.1221922253       1.0665831965        -1.8605110099
H         -1.3704474397       2.2380230222        -0.7525331397
H         1.0305174414       0.1317269432        2.2750157723
H         0.0618565538       0.2847916518        -1.2653075434
H         4.0444190522       -0.5558646963        -0.0345053328
H         3.6119476487       -0.5606660609        -1.7445415843
H         -4.3804367254       -0.0523035411        0.6646006183
H         -3.8952063231       -0.2646578721        -1.0289519583
H         1.977636988       1.2787777368        -1.3396791545
H         3.5485623026       1.767769933        -0.7322883685
H         2.4652959815       -2.3688778548        -0.4239219804
H         1.3544611364       -1.2922399927        -1.2623750055
H         2.9831416183       1.1083509165        1.5387829644
H         1.7277174381       2.2048101203        0.9787728098
H         -3.0886712021       -2.1820652969        0.2940551168
H         -2.291761393       -1.099345857        1.4308100865
H         -0.6072156545       -1.9383808254        -0.1911704149
H         -1.6199195816       -1.4212779413        -1.5360612275

