31 
 
C         -1.7547838234       1.2651787372        -0.7263981581
C         1.1368601248       0.2071955365        1.1987566082
C         -0.7042227869       0.2075671478        -0.4319934617
C         3.2419111072       -0.3824698801        -0.7423607417
C         -3.5333991874       -0.1237697777        -0.063285345
O         -2.8891921079       1.1366073256        0.1200820189
C         2.6958774238       1.0389909377        -0.6975337455
C         2.1348160121       -1.3595615535        -0.407877155
C         2.0861620262       1.2920986208        0.6801504934
C         -2.6005026227       -1.269640512        0.2863690129
O         1.5495536635       -1.1042020755        0.8774095074
O         -0.2258948049       0.4480633241        0.8947601086
C         -1.3243693922       -1.18339544        -0.5500486622
H         -2.0642664921       1.179205564        -1.7737514049
H         -1.3457286833       2.259361638        -0.5558458175
H         1.1445549912       0.2383521009        2.2865340369
H         0.097572327       0.336811974        -1.1565086109
H         4.0515628205       -0.4921848721        -0.0167597851
H         3.6394327929       -0.6275262863        -1.7273473764
H         -4.4129202663       -0.1134807144        0.577108234
H         -3.8603853846       -0.2052200908        -1.1066444538
H         1.9595389551       1.1763496006        -1.4907638129
H         3.4902078835       1.7638176128        -0.874163074
H         2.5124860796       -2.3777617071        -0.3402644004
H         1.3662439467       -1.3399222195        -1.1837750925
H         2.9044501939       1.3460593941        1.4015397203
H         1.5571752013       2.2434878931        0.7224815091
H         -3.1110792235       -2.216586171        0.1103973065
H         -2.3575065709       -1.2185571181        1.3492117173
H         -0.606413857       -1.943614263        -0.2471188094
H         -1.5656223459       -1.3532737265        -1.6025873667

