31 
 
C         -1.7907528127       1.480157198        -0.0126084432
C         1.0957909025       -0.580869841        -0.744634817
C         -1.069683526       0.4059385528        -0.803675027
C         3.4259310556       0.3758288889        0.6539904811
C         -3.378998581       -0.036461793        0.8349698985
O         -2.4053707797       0.9566828378        1.1571356741
C         2.5951890876       -0.7508236565        1.2640610536
C         2.549358425       1.240831128        -0.2323543076
C         1.8890214895       -1.5186442453        0.1482798366
C         -2.740081082       -1.2169249925        0.1248635426
O         1.9067236639       0.4647109323        -1.2516460845
O         0.0216776159       -0.0582813511        -0.0007053097
C         -2.0195346558       -0.7408206838        -1.1353392513
H         -2.548895738       1.9443789215        -0.6523869293
H         -1.0868643728       2.2426599414        0.3162180003
H         0.723868484       -1.0989444603        -1.6292658497
H         -0.6763738675       0.8622785309        -1.715031534
H         4.23488557       -0.0457219272        0.0522627964
H         3.8756846254       0.9996660984        1.4269322612
H         -3.8341966509       -0.3342311514        1.7771816251
H         -4.150288653       0.4162442021        0.2008142162
H         1.8565270971       -0.3291752153        1.9492261028
H         3.2240468206       -1.426822529        1.8423046532
H         3.1310171966       1.9916088003        -0.7625792234
H         1.78973233       1.7527633768        0.3641365337
H         2.6291847629       -2.0198921887        -0.4780704483
H         1.2139307085       -2.2775698123        0.542768063
H         -3.5095314158       -1.9476520015        -0.1245272504
H         -2.0335586183       -1.6992143294        0.8029437954
H         -1.4709626847       -1.5560535592        -1.6078150979
H         -2.7497273969       -0.3747846716        -1.8609359605

