31 
 
C         -1.7459600383       1.2949541371        -0.6075997634
C         1.1540881365       0.2286386695        1.1951845066
C         -0.709218045       0.2044710636        -0.3964238373
C         3.2709315905       -0.363140827        -0.7337237411
C         -3.5428309667       -0.1314748083        -0.0886996304
O         -2.8913564185       1.1029377223        0.2112485871
C         2.6474406407       1.025205071        -0.7920412115
C         2.2116054358       -1.3651417822        -0.3287057728
C         1.9837297415       1.3472182498        0.5487838992
C         -2.6247114587       -1.3111710392        0.1767993273
O         1.6663662279       -1.0689336187        0.9643421262
O         -0.2356277997       0.3030232645        0.9515969425
C         -1.3365018057       -1.1675068258        -0.6329893418
H         -2.0436279751       1.3056496887        -1.6619700609
H         -1.329912659       2.2659194482        -0.3447748979
H         1.2064406671       0.3488548307        2.2751965312
H         0.1021141151       0.3818270619        -1.098985285
H         4.0817345593       -0.3830806374        -0.0014494038
H         3.6841091421       -0.6522519247        -1.7001005691
H         -4.4321028535       -0.1672017067        0.5370573108
H         -3.8539424239       -0.1208501893        -1.1398856426
H         1.9307502231       1.0643479913        -1.6129958451
H         3.4041997492       1.7813434651        -0.9996834263
H         2.6238366605       -2.3675282614        -0.2341578426
H         1.4161244481       -1.3982240572        -1.0776356933
H         2.7775088297       1.5730426239        1.2630640355
H         1.3533059042       2.2337928678        0.4823202184
H         -3.1405990113       -2.2354782353        -0.0836150317
H         -2.3962277579       -1.3501250992        1.2433183563
H         -0.6243427228       -1.9508863331        -0.3749480219
H         -1.5618241349       -1.2583538097        -1.6985078224

