31 
 
C         -1.9689174369       0.558004032        -1.2097079467
C         1.1051355338       0.2324018298        -0.8654832575
C         -1.1224339626       -0.6179912274        -0.7439750973
C         3.4247026631       0.1294462014        0.834988734
C         -3.3462375781       0.4717366676        0.7004433109
O         -2.5049010845       1.2873971318        -0.1146646803
C         2.8198551751       -1.1736261604        0.3188890068
C         2.3458659029       1.1910401138        0.9301980363
C         2.10304842       -0.9071248266        -1.0020727024
C         -2.5677981445       -0.6835128872        1.3042815073
O         1.6941828853       1.3949944273        -0.3320692826
O         0.0253230207       -0.1511989333        -0.0292353708
C         -1.9252164851       -1.5100395181        0.1913900032
H         -2.781993708       0.1830601        -1.841386096
H         -1.373603561       1.2620131618        -1.7891815755
H         0.7221835258       0.5296695175        -1.8420457224
H         -0.7991780981       -1.189105614        -1.6185046329
H         4.2052200856       0.4725453125        0.1515403094
H         3.8770279627       -0.0048077532        1.8179495187
H         -3.7536273986       1.1259725496        1.4683354858
H         -4.1730831639       0.0930176996        0.0881617718
H         2.109598118       -1.5600331435        1.0535302337
H         3.5891306708       -1.932664215        0.1819013116
H         2.7575096047       2.1602861958        1.2019382484
H         1.6003638088       0.9116183875        1.6790734195
H         2.8281962774       -0.6261198428        -1.7686189495
H         1.568856595       -1.7895977253        -1.3567200024
H         -3.2405476193       -1.2998631861        1.9007166531
H         -1.8019876442       -0.2869727374        1.9733071384
H         -1.2786153791       -2.2891811906        0.594460437
H         -2.7064339856       -1.9959133667        -0.3971438095

