31 
 
C         1.1015441939       0.7238102387        -0.5523814594
C         3.3391943115       -0.7826233602        0.6755983925
O         -1.5219387204       -0.8924705297        -0.9605828559
C         1.5415348202       -0.718933063        -0.8351399807
C         2.0048032861       1.3135762456        0.5302041448
O         -0.2337773212       0.8455242969        -0.06779561
C         -2.5068853427       1.2789803539        -0.5615693371
C         -3.0338454818       0.8048421113        0.7923329344
C         -1.2628788832       0.4975167026        -0.9577277715
C         -3.2373167371       -0.709067508        0.7571052187
C         -1.9567443336       -1.3910207528        0.3050872691
C         3.4072937154       0.7266220823        0.4097897853
O         2.064766944       -1.325041812        0.3331584166
H         1.1842645515       1.2979598849        -1.4818520781
H         4.1192653082       -1.3115228337        0.1199229468
H         3.469783466       -0.9887465641        1.7368393581
H         0.7015536081       -1.320893087        -1.1659485858
H         2.3000238161       -0.7152902582        -1.6254079383
H         1.579403742       1.0409780701        1.4975578411
H          2.0135765933       2.4000434826        0.466625571
H         -2.2676722501       2.3414625942        -0.5503852785
H         -3.2625517789       1.1109567885        -1.3311746446
H         -2.313889306       1.0584336138        1.5730292544
H         -3.9659623451       1.3153962157        1.0321140703
H         -0.9590893549       0.7260312562        -1.9823080934
H         -3.5243011848       -1.0917622298        1.7370202697
H         -4.0379556181       -0.9573080543        0.0561132192
H         -2.0998380446       -2.4602173193        0.1651390937
H         -1.1634527609       -1.2415131533        1.04294805
H         3.8031972831       0.9242387735        -0.5877683211
H         4.089912824       1.1902488146        1.1195491188

