31 
 
C         0.9074152519       -0.1425952256        0.404651952
C         3.7883717693       0.2539682636        -0.0974480049
O         -1.5920112534       -1.2955486946        -0.1197646929
C         1.837614925       0.8899400569        1.040068905
 C         1.6754853628       -0.9521850674        -0.644059832
O         -0.2015212166       0.5700661921        -0.1419297974
C         -2.2278274389       0.703211161        -1.3488243368
C         -3.0915767024       1.1605765994        -0.1742705567
C         -1.1071467448       -0.2110145421        -0.8809993305
C         -3.5545035633       -0.0581881326        0.6224035431
C         -2.3520893471       -0.8962085972        1.0218643437
C         3.11512397       -1.1229903723        -0.1655568027
O         2.8419236604       1.2972646636        0.1307660154
H         0.5401796244       -0.81486486        1.1858678166
H         4.5492230474       0.2766562346        0.6883463968
H         4.2636440892       0.4938170908        -1.0471617458
H         1.2669828805       1.7748932144        1.3134912561
H         2.2970890006       0.4802479883        1.9448371395
H         1.6722255202       -0.3983867834        -1.5856343176
 H         1.1978438608       -1.9146589649        -0.8178448826
H         -1.7918708895       1.548069967        -1.8807239311
H         -2.8361741678       0.139244486        -2.0581806817
H         -2.5088495795       1.818027683        0.4737146113
H         -3.9441997372       1.7336080367        -0.5370275154
H         -0.6037168704       -0.676055638        -1.7294843981
H         -4.0996389052       0.240053275        1.5184164487
H         -4.2256349169       -0.6674890176        0.0121836531
H         -2.6502642036       -1.8201665986        1.5122241163
H         -1.7116668247       -0.3321173738        1.7066933945
H         3.1162301956       -1.5998415436        0.8163844654
H         3.6795612029       -1.7708295008        -0.8336182313

