31 
 
C         0.9667373606       0.0239283402        0.7881363324
C         3.6355551967       -0.0141671568        -0.4833172229
O         -1.4019313863       -1.0263676121        -0.721795499
C         2.0575660662       1.1032053241        0.8365848033
C         1.4307707432       -1.1178646141        -0.1240311983
O         -0.2833398437       0.6460957884        0.4602866201
C         -2.1434158967       1.2767921992        -0.8287120843
C         -3.1702259784       1.0096068968        0.2712708442
C         -0.9675601508       0.316510914        -0.7179955116
C         -3.5579510651       -0.4685527662        0.2608452024
C         -2.3089060657       -1.3313444818        0.3369208209
C         2.9405218762       -1.2735366794        0.0482088414
O         2.7977246221       1.1354649616        -0.3693135261
H         0.8354083083       -0.3701290175        1.7992659934
H         4.5745829663       0.1676893398        0.0478630136
H         3.8514180241       -0.1162660664        -1.5456376504
H         1.5955154022       2.0794662629        0.9626317468
H         2.731376478       0.9260407812        1.6813208307
H         1.2256319062       -0.8842209576        -1.1675922369
H         0.8999985618       -2.035570373        0.114304668
H         -1.770576179       2.2994799376        -0.7909640362
H         -2.6008791201       1.1213695373        -1.8074932608
H         -2.7405579845       1.2661659393        1.2412808824
H         -4.0470247423       1.6401120302        0.1268463474
H         -0.3172821186       0.4032478591        -1.5887313159
H         -4.2160335924       -0.7091959965        1.0964034768
H         -4.0938256998       -0.7035101322        -0.6620996621
H         -2.5444887159       -2.3875417061        0.2264729074
H         -1.8055200555       -1.188488835        1.2978782455
H         3.1763621049       -1.428080093        1.1027711199
H         3.3067849781       -2.1454736241        -0.4905654926

