31 
 
C         0.9466237692       -0.0156005738        0.4185564471
C         3.7587268493       0.3391524813        -0.4239046167
O         -1.7535398294       -0.4209131461        1.2783185159
C         1.65523235       1.2805432279        0.0247152628
 C         1.9142937241       -1.1939937967        0.258776845
O         -0.1908843821       -0.1676652138        -0.4286241128
C         -2.2600372501       -1.1670062189        -0.9745884338
C         -2.9860201881       0.1479199331        -1.2564268099
C         -1.205880708       -0.981087475        0.1041748927
C         -3.5173070812       0.7276014202        0.0537027692
C         -2.3878024002       0.8407715486        1.0637876672
C         3.3294202367       -0.7275300606        0.5918714865
O         2.6402267091       1.0427034109        -0.9627226898
H         0.6076636222       0.0711909422        1.4532922756
H         4.4508356968       1.0538125235        0.0313173636
H         4.2506572923       -0.1233051718        -1.2780308478
H         0.9326938773       1.9761999396        -0.3972216523
H         2.1123682633       1.7453678776        0.9039232661
H         1.8720987143       -1.5245071831        -0.7805853322
H         1.6181705148       -2.03187921        0.8877073016
H         -1.7816143151       -1.5624896103        -1.8697146531
H         -2.9713218326       -1.9131136483        -0.6160584631
H         -2.2936598726       0.8571291659        -1.7139398542
H         -3.7977336678       -0.0165009619        -1.9642484342
H         -0.792352514       -1.9400896199        0.4252558232
H         -3.9623028987       1.7108633665        -0.1017758821
H         -4.2920261949       0.0729005896        0.4601826543
H         -2.7517800077       1.1547814592        2.039440477
H         -1.6443320753       1.5669239949        0.721748756
H         3.3480886186       -0.3216910876        1.6049641401
H         4.0351859799       -1.5558329033        0.5688888382

