31 
 
C         1.2001500702       0.3866249635        0.1794091427
C         -3.9653857658       -0.3705949214        -0.3538928958
C         -1.1595948493       0.1423127001        0.4521542649
C         -2.6935351991       -0.9757195568        -0.9557139764
C         -3.5878600902       0.6349803226        0.7467502939
C         1.6254147798       -1.0698488058        0.3135779903
C         2.1571310693       1.1230635606        -0.7466098344
C         3.9437481946       -0.3068792375        -0.2140578356
O         3.4873909689       1.0392033106        -0.2741319418
C         3.0934568961       -1.1344333785        0.7362263911
O         -0.0940357523       0.5322646296        -0.3845565332
C         -2.2228462148       1.2381318594        0.4304872417
O         -1.6844325047       -1.1001302596        0.0426514313
H         1.2283275698       0.8717793352        1.1621324949
H         -4.6014614806       -1.1555793095        0.0529359278
H         -4.5262522199       0.125172103        -1.1473650879
H         -0.7896712085       -0.0218262603        1.4658960947
H         -2.8664397935       -1.9765224454        -1.3427709998
H         -2.3167415596       -0.3612415235        -1.7766573362
H         -3.5351147242       0.1264930975        1.7107225789
H         -4.3437236377       1.4126796094        0.8371601296
H         0.9866634161       -1.592617262        1.0261270899
H         1.4943101281       -1.5507327546        -0.659900901
H         1.89780846       2.1786158928        -0.7987288711
H         2.0824825907       0.6911846672        -1.7526175125
H         3.915137155       -0.7416110469        -1.220658423
H         4.9800643398       -0.2622852658        0.1135416132
H         3.448494803       -2.164991578        0.7413916178
H         3.2090100816       -0.7407918281        1.7483883032
H         -2.2327544141       1.6936613334        -0.5618480827
H         -1.9392071088       2.0139230488        1.1397516253

