31 
 
C         1.1008687312       -0.3313994606        -0.1763647372
C         -3.6517468467       0.8767901057        0.2319805402
C         -1.2388208175       -0.7018543814        -0.4164630886
C         -2.2002894025       1.3654917768        0.1614316135
C         -3.709630236       -0.6204131486        -0.1110902245
C         1.4771356688       1.0548682423        0.3261147887
C         2.184862408       -1.3348010324        0.1961885601
C         3.859874948       0.3123754165        0.2170478004
O         3.4464569451       -0.942417662        -0.3099501518
 C         2.8825082308       1.4150163636        -0.1564698539
O         -0.110173607       -0.7856886802        0.4158889438
C         -2.4202464708       -1.2980716079        0.344265466
O         -1.483168847       0.6257596395        -0.8237538996
H         0.9976721488       -0.313327974        -1.2660524292
 H         -4.2776477372       1.4448771892        -0.454924361
H         -4.0324749334       1.0501069704        1.2394001126
H         -1.0470671413       -1.2407622469        -1.3480987924
H         -2.136190643       2.411042871        -0.1290381243
H         -1.6995936371       1.2542933419        1.1265849551
H         -3.8154053107       -0.7481248662        -1.1893240151
H         -4.575308631       -1.0892481626        0.3526683363
H         0.7391619509       1.7836378358        -0.0064243932
H         1.4560935953       1.0328310086        1.4197080591
H         1.9579288585       -2.3125557984        -0.2247022462
H         2.2251523643       -1.4236050379        1.2894469569
H         3.9411605326       0.2349588008        1.3082702809
H         4.8506419042       0.5018556021        -0.19032268
H         3.2110601669       2.3580319912        0.2808276894
H         2.8853344967       1.5364162003        -1.2419706542
H          -2.2670063738       -1.1302735804        1.4122173069
H         -2.4438333148       -2.373950716        0.1822552414

