31 
 
C         1.075392521       -0.3832151208        -0.2393479903
C         -3.5333611385       1.0191771834        0.090206571
C         -1.3018497833       -0.8498754044        -0.3641841175
C         -2.0541427578       1.3722375553        -0.0655803894
C         -3.7030034653       -0.5105921645        0.1286978354
C         1.3283154675       0.940714364        0.4679377507
C         2.2574237226       -1.3218982746        -0.0194538436
C         3.773669429       0.4454876113        0.2662001253
O         3.4737611999       -0.7439854437        -0.4523123963
C         2.6947264251       1.4942128347        0.0582901522
O         -0.0562437519       -1.075730199        0.2715100674
C         -2.4136667158       -1.1601334116        0.6258354901
O         -1.4080201895       0.4339729443        -0.9278939356
H         0.9617287948       -0.2128653951        -1.3136292595
H         -4.109615779       1.4423934876        -0.7313245985
H         -3.9008596123       1.4702519206        1.0126868791
H         -1.3630790084       -1.5218443928        -1.226684123
H         -1.9135694255       2.3507956586        -0.5181597199
H         -1.5551313673       1.3780508742        0.9062037197
H         -3.9173055322       -0.8833988741        -0.8742059656
H         -4.5440135422       -0.7920160194        0.7588241337
H         0.5414293283       1.6545615167        0.2351200926
H         1.3094695206       0.7574845941        1.5463758015
H         2.1173316016       -2.2406167839        -0.5855946534
H         2.3172375364       -1.5727585666        1.0474556468
H         3.8689845207       0.2077288918        1.33290975
H         4.7395798269       0.7880390162        -0.0988674115
H         2.9346410954       2.3870731023        0.636014722
H         2.679505054       1.7790151742        -0.9961219067
H         -2.1393394419       -0.7703341662        1.6075926732
H         -2.5106865328       -2.2402785125        0.7174559001

