31 
 
C         1.078518644       -0.38746698        -0.2704566632
C         -3.542860166       1.0162447752        -0.0180888109
C         -1.3228399296       -0.8824448991        -0.3271043069
C         -2.075307576       1.3752483611        -0.2335690596
 C         -3.676723785       -0.4841697556        0.3118923334
C         1.3017845734       0.8731918683        0.553526508
C         2.2869344795       -1.3093601803        -0.1400910237
C         3.757976157       0.4657451223        0.2940136269
O         3.4835019256       -0.662033531        -0.5268687661
C         2.6495938284       1.4990590121        0.1885108928
O         -0.0233644497       -1.1615480117        0.179097967
C         -2.3365074475       -1.0369544561        0.7925190416
O         -1.4104530597       0.3569247745        -0.984177768
H         0.9570362811       -0.1223040288        -1.3234595693
H         -4.1197631622       1.2605825007        -0.9088742752
H         -3.9285493217       1.629014211        0.7972781902
H         -1.5223933173       -1.6230663744        -1.1082019823
H         -1.9615954805       2.2920190767        -0.8068293165
H         -1.5745879629       1.5165334326        0.7258674001
H         -3.9759177341       -1.0329953819        -0.5826137467
H         -4.4502082347       -0.6511064418        1.0583552515
H         0.4961938764       1.5852380189        0.3893863129
H         1.2944730971       0.5933827852        1.6111448831
H         2.1668838661       -2.1776911992        -0.7847775435
H         2.3623890754       -1.651580631        0.9000318588
H         3.8690318396       0.1357545763        1.3343520824
H         4.7110885654       0.8660668717        -0.0449437711
H         2.8702047713       2.3421574986        0.843552581
H         2.6180974064       1.8779857996        -0.8354495135
H          -1.9846894637       -0.5027980154        1.676760779
H         -2.4039842961       -2.0916057985        1.0533744078

