31 
 
C         1.0258164917       0.158914588        0.0028946507
C         -3.7512722722       0.0021863045        0.7591726928
C         -1.2639471238       -0.1472568196        -0.8426886692
C         -2.9404192526       1.1680097428        0.186238407
 C         -3.0356582693       -1.3185367293        0.4315647695
C         1.7667056109       -0.9932186458        -0.6673439042
C         1.9614474776       1.353777223        0.1414653064
C         3.8722590527       -0.0086061654        0.2451331378
O         3.1160052019       1.0131689791        0.8835472687
C          3.0588450599       -1.2841030149        0.0967253984
O         -0.0706102706       0.6212160921        -0.7659428
C         -1.5322423303       -1.0589031318        0.3582333028
O         -2.3137218979       0.7672021939        -1.0279886323
H         0.7132554981       -0.1373188843        1.0058788898
H          -4.7586236511       0.0016020573        0.3453808084
H         -3.8399431557       0.1296961755        1.8388553302
H         -1.2341332267       -0.7403670367        -1.7598860267
H         -3.5701142924       2.0184507074        -0.0609894705
H         -2.1805380754       1.5094064476        0.8931881649
H         -3.3808498968       -1.7034851982        -0.529114919
H         -3.2574355108       -2.0764171369        1.1800128103
H         1.1370676173       -1.8818319469        -0.7206200261
H         2.0003653434       -0.6925723883        -1.692705049
H         1.462991722       2.1633838562        0.6709665115
H         2.2423836229       1.7059393406        -0.8588789447
H         4.1975741548       0.347079997        -0.7401360287
H         4.7531552615       -0.1670016541        0.8633639354
H         3.6520166721       -2.0380458541        -0.4208650056
H         2.8256813426       -1.6729666383        1.0903472029
H         -1.2181472054       -0.5782366793        1.2849830391
H         -0.9634026988       -1.9810347811        0.2567528494

