31 
 
C         1.1142798462       0.1344323408        0.0451895591
C         -3.9748769894       0.3725712134        0.0641875849
C         -1.1718381759       -0.5688686333        -0.0118398942
C         -3.0625592253       0.236509904        -1.1583897551
C         -3.2024443588       -0.0304650346        1.3298818188
C         1.8640594102       -1.193975892        0.0468650272
C         1.9567574452       1.2021023257        -0.6407803052
C         3.9743367393       0.1408970125        -0.0827925116
O         3.2186969312       1.3440893844        -0.020276474
C         3.2608657938       -0.9912976435        0.6367741382
O         -0.1031774973       0.0791362506        -0.6818120813
C         -1.7182568981       0.2762559634        1.1440068894
O         -2.1485279755       -0.8443909739        -0.9745579853
H         0.930005368       0.4570546942        1.0758378344
H         -4.8605985961       -0.2504904144        -0.051966074
H         -4.3111640064       1.4077172135        0.1359788932
H         -0.8384231933       -1.5438480121        0.3504894818
H         -3.6240594772       0.0104008638        -2.0607585337
H         -2.5005763037       1.1562306462        -1.3333562822
H         -3.3195903299       -1.1002236393        1.5097042452
H         -3.5955479693       0.4843156507        2.2043485981
H         1.3215045085       -1.9542606177        0.6077808551
H         1.9429762613       -1.5371424049        -0.9884690523
H         1.4577232418       2.1675236741        -0.5852596148
H         2.0804447545       0.9292403656        -1.6966383984
H         4.1405111693       -0.1254973467        -1.1337788005
H         4.9365780509       0.3606956299        0.3744638377
H         3.8481071064       -1.9058241669        0.5537238487
H         3.1853902406       -0.7435430038        1.6977572433
H         -1.5759707608       1.3334630588        0.907487088
H         -1.1549501102       0.0640545916        2.0508648195

