31 
 
C         1.195362794       0.2966622425        0.1299964154
C         -4.0438825589       -0.1888639805        -0.2622780182
C         -1.1602834465       -0.0211328444        0.3897993023
C         -2.8799378449       -0.8578395835        -0.9993112051
C         -3.4998972966       0.6884250457        0.8782703295
C         1.7320785102       -1.1148211731        0.3292814118
C         2.1161709883       1.0747874572        -0.7986575479
C         3.9955188029       -0.1878397787        -0.1689305636
O         3.4354692634       1.1141388235        -0.290756872
C         3.1882380355       -1.0470480223        0.790916783
O         -0.089422211       0.3090526068        -0.4724602411
C         -2.1008245349       1.1754741507        0.5133125427
O         -1.8262375726       -1.1634268746        -0.0887144119
H         1.158982403       0.8199205789        1.092669864
H         -4.7238998677       -0.9428545974        0.1317749608
H         -4.6058797371       0.4164481204        -0.9747791972
H         -0.7667123697       -0.305433281        1.3673071607
H         -3.1765296477       -1.8011855119        -1.4501762858
H         -2.4966875445       -0.2142365294        -1.7943592892
H         -3.4424340227       0.105463904        1.7988752505
H         -4.1649248955       1.5274720405        1.0731542105
H         1.1182430029       -1.663921897        1.0441753772
H         1.6690235248       -1.6368012058        -0.6296528337
H         1.775288417       2.1036462702        -0.8953778793
H         2.1036062454       0.6041389846        -1.7899077855
H         4.0287399749       -0.6591565364        -1.1587843473
H         5.015705934       -0.0484198164        0.1818220849
H         3.6233750994       -2.0450929355        0.842698365
H         3.2443516777       -0.6103462992        1.7903463079
H         -2.1218315942       1.7035265195        -0.4419699889
H         -1.6954855291       1.8627991225        1.2545781005

