31 
 
C         1.0782283507       0.1756269252        0.1654863045
C         -3.9050244627       0.031353692        0.4857150068
C         -1.1688294961       -0.1685341865        -0.6134517766
C         -3.0789264339       1.1376848986        -0.1765748438
C         -3.073641759       -1.2597771043        0.5533969276
C         1.7113588247       -0.9057969163        -0.7044676125
C         2.0439800892       1.3434644859        0.3224063075
C         3.9314051274       -0.0180326043        0.0396543019
O         3.2745988864       0.9253174389        0.8769660906
C         3.0873787651       -1.2681372473        -0.1423076552
O         -0.1000159995       0.7367592792        -0.3906071921
C         -1.5928238695       -0.9042360885        0.6607229812
O         -2.2143150878       0.5795786038        -1.164946303
H         0.8716269729       -0.2333403389        1.1606272592
H         -4.8249313266       -0.1405110004        -0.0713969328
H         -4.1861616419       0.356352562        1.4882510002
H         -0.8844528883       -0.8820329175        -1.3905394642
H         -3.7064006054       1.8589096023        -0.693093408
H         -2.48137837       1.6784715327        0.5602181877
H         -3.2296857127       -1.8492639567        -0.3513768477
H         -3.3839259871       -1.8769949799        1.394090224
H         1.0807414256       -1.7939526989        -0.7516605803
H         1.81204386       -0.5142201069        -1.7209283733
H         1.6233754972       2.0909798805        0.9921119814
H         2.2064577361       1.8020735965        -0.6610655961
H         4.1357621204       0.4452853081        -0.933305749
H         4.8803989195       -0.2449993356        0.5204571788
H         3.6004060771       -1.963408234        -0.8067010422
H         2.974116291       -1.7610851028        0.8256482904
H         -1.4265598783       -0.2561723457        1.524522434
H         -0.9754704241       -1.7918426412        0.7935609011

