31 
 
C         1.0478855551       0.1815546086        0.0830485184
C         -3.8295730421       -0.0112573971        0.6333745129
C         -1.2093869723       -0.1426901821        -0.7404803148
C         -3.0352494198       1.1470453228        0.0236095457
C         -3.0232855411       -1.3117362297        0.4856422186
C         1.7278708788       -0.9321367023        -0.7070298533
C         2.0097735998       1.350733942        0.2515544811
C         3.899838039       -0.0375123082        0.1455575349
O         3.1989905231       0.9443497321        0.899211674
 C         3.0585137413       -1.2891121305        -0.0433450651
O         -0.086784614       0.7127384508        -0.5798739346
C         -1.5332655357       -0.9789331615        0.501490623
O         -2.2837945242       0.6836434188        -1.0952699269
H         0.7827744908       -0.1841587335        1.0786280635
H         -4.7973904459       -0.1070730765        0.1433211459
H         -4.015312509       0.204523028        1.6863379147
H         -1.0431728588       -0.7940170597        -1.6027556826
H         -3.6853350474       1.933015297        -0.3510785603
H         -2.3582135882       1.5922980098        0.7557488842
H         -3.2694647186       -1.7981430556        -0.4594329567
H         -3.2686325292       -2.0131067779        1.2804526008
H         1.0853804001       -1.8106870209        -0.7769052399
H         1.9033573977       -0.5690105068        -1.7237947346
H         1.5560855113       2.1272026451        0.8643498378
H         2.2386078087       1.7690646584        -0.7365581961
H         4.1721969582       0.3844186052        -0.8295699731
H         4.8129827605       -0.2506882823        0.6969170907
H         3.6078705761       -2.0119119081        -0.6465421224
H         2.8775292283       -1.7442694195        0.9328183595
H         -1.3018177687       -0.4092848469        1.4035288489
H         -0.9180263541       -1.8770659195        0.5138327058

