31 
 
C         -2.7033249361       1.3409768915        0.5029529259
C         -1.4510034489       -1.2210789438        0.0429503225
C         0.9914909278       -0.737938122        -0.5535618687
C         -2.7214955815       0.7342378314        -0.8966006128
O         2.8620358281       -0.5112678862        0.9179519361
C         3.1880141945       0.7770815195        0.4106477768
C         -1.4531045164       0.8864863955        1.2319430984
C         1.2893565664       0.6021804175        -1.2160659765
C         1.4579079143       -0.7266943533        0.9057539194
C         2.7782571367       0.9171228581        -1.0476097523
O         -1.2994711567       -0.5367463693        1.2527437443
O         -0.3249669163       -1.1981191959        -0.8323593995
C         -2.6656949974       -0.7816965009        -0.7597756041
H         -3.5890194961       1.0194096855        1.0555368333
H         -2.7095058312       2.4305910652        0.4700562822
H         1.6352385059       -1.47857762        -1.0389198138
H         -3.6151342965       1.033846256        -1.4421776001
H         -1.8567417391       1.0875756721        -1.4648224076
H         4.2629459907       0.8920596729        0.5327509023
H         2.6863004608       1.5400261213        1.0188543982
H         -0.5761393382       1.3438861576        0.7704481801
H         -1.4694360014       1.181929041        2.278872111
H         0.6903760193       1.3941977264        -0.7636935989
H         1.0190206894       0.5503917578        -2.2709863546
H         3.37021396       0.2220390514        -1.6467212982
H         3.0029919443       1.9255706686        -1.3954288492
H         -3.555835159       -1.1330830118        -0.2334802013
H         -2.6311912936       -1.2809884429        -1.7264550959
H         -1.5717793262       -2.2602960473        0.3555540204
H         0.975714375       0.0554818484        1.4920081339
H         1.2703935215       -1.6875281442        1.3813158488

