31 
 
C         -3.4549398234       -0.8007546596        0.0419752257
C         -1.1289575407       0.8638713361        0.3570855401
C         1.0609170523       0.4126568518        -0.6752042897
C         -2.1589868591       -1.4149922058        0.5692704206
O         2.84441193       -1.2286327084        -0.709551607
C         3.5005547676       -0.6054361279        0.3870550143
C         -3.139393232       0.4089425973        -0.8214540594
C         1.728439561       1.1612441568        0.4719256942
C         1.4403727985       -1.0673220015        -0.6341425888
C          3.234093399       0.891003647        0.4108736094
O         -2.3473122484       1.3698213924        -0.1164916754
O         -0.3528056951       0.5443241794        -0.7849486162
C         -1.3489524711       -0.3320423778        1.2765223973
H         -4.0805894206       -0.4882247105        0.8814648502
 H         -4.0245169189       -1.5210693734        -0.5459098205
H         1.457205594       0.8155640579        -1.6109333795
H         -2.3680672418       -2.2384893198        1.2509114561
H         -1.5795832647       -1.8194929807        -0.2641152825
H         4.560961665       -0.8175470569        0.2700542396
H         3.1554670227       -1.0640642424        1.3220022125
H         -2.6117161587       0.1017272122        -1.7271862354
H         -4.0437780989       0.9385726035        -1.112001605
H         1.3454830077       0.8071120466        1.4325297711
H         1.524139564       2.2300448407        0.4049159717
H         3.657657109       1.340881677        -0.4892250233
H         3.7347420582       1.336720911        1.2703019585
H         -1.8947551008       0.0290981426        2.1511292453
H         -0.3898904546       -0.7085340826        1.6293303859
H         -0.6718265971       1.6908624503        0.8992223907
H         1.0594220602       -1.5347368089        0.2815523155
H         1.0091415367       -1.5818494463        -1.4909925159

