31 
 
C         -3.3255527591       -0.9242790522        0.055943627
C         -1.1529056188       0.9587730818        0.3651434338
C         1.0312833401       0.465453639        -0.6664359773
C         -1.9788907837       -1.413415605        0.5846925359
O          2.7098264474       -1.2644139923        -0.7332581027
C         3.4142730832       -0.6917094085        0.3618749337
C         -3.1133506266       0.3026086839        -0.8130067712
C         1.7543666209       1.1796455684        0.4699862331
C         1.315172313       -1.0367939093        -0.629548785
C          3.2402344182       0.8184258465        0.4013940234
O         -2.4194333104       1.3330829905        -0.1045362137
O         -0.3552046581       0.7563549127        -0.7906302042
C         -1.2653980853       -0.2571688563        1.2812985147
H         -3.9778065935       -0.6633495395        0.8926238931
H         -3.8262928645       -1.6971289803        -0.5277542486
H         1.462486137       0.8265074295        -1.6037990112
H         -2.1094114572       -2.2453787326        1.2757783539
H         -1.3746186854       -1.7763455876        -0.2496419889
H         4.4585024178       -0.9668044905        0.2309959357
H         3.0521370941       -1.13811894        1.2963122209
H         -2.5510731588       0.039591062        -1.7116898528
H         -4.0583653792       0.7485363609        -1.1145010753
H         1.3566258402       0.8663750371        1.4379126984
H         1.611375054       2.2574581563        0.386595679
H         3.6857441585       1.2487931105        -0.4976983983
H         3.7729004212       1.2246225994        1.261229087
H         -1.849799986       0.0640179502        2.1466140012
H         -0.2864452903       -0.5483651424        1.6549753683
H         -0.7813098592       1.8227258465        0.918824212
H         0.9378630762       -1.4966284395        0.2890794223
H         0.8441746944       -1.523156599        -1.4822975441

