31 
 
C         -3.094981998       -1.1393380054        0.0789334324
C         -1.3623889355       1.2238509472        0.2470197055
C         1.0329774043       0.6510520886        -0.5336671083
C         -1.9102326986       -1.213504703        1.0362885321
O         2.2861408657       -1.3680990389        -0.7796911068
C         3.2285658611       -1.0004066652        0.2220418648
C         -2.7122146078       -0.247080078        -1.0835954991
C         2.0036983482       1.1633325044        0.5271543512
C         0.992090701       -0.8738453828        -0.4753980211
C         3.3716599588       0.5103456579        0.3160986756
O         -2.458930456       1.0722325464        -0.6184911411
O         -0.1894180877       1.3768830607        -0.5378162245
C         -1.3862975646       0.1883054236        1.3838003855
H         -3.9696976373       -0.710964031        0.5728480532
H         -3.3643265718       -2.1331213024        -0.2785589142
H         1.4581210539       0.8886949795        -1.5120248359
H         -2.1881376693       -1.7158334447        1.9624636564
H         -1.1426365302       -1.8271438805        0.5716223781
H         4.1682598087       -1.4728347383        -0.0553729389
H         2.9041850747       -1.4112277786        1.1857708243
H         -1.8305235805       -0.6370497209        -1.6030001972
H         -3.5162291111       -0.1530145922        -1.8099480081
H         1.6244063249       0.9186432657        1.5228509264
H         2.0753794596       2.248579963        0.4588088436
H         3.813029634       0.8804281342        -0.6116019233
H         4.0527953968       0.7628848066        1.1289233124
H         -2.0686560519       0.6145829957        2.1212789152
H         -0.4112014699       0.1429145604        1.8661267668
H         -1.5169441162       2.2069343399        0.6891715419
H         0.7115878531       -1.2257000946        0.5193112239
H         0.3073383416       -1.2867998175        -1.2141494709

