31 
 
C         -2.5777356882       -0.9990796858        1.0688210929
C         -1.5346385423       1.0326850022        -0.7436912385
C         0.9848977688       0.4392683891        -0.8367272693
C         -1.5688249267       0.0095006115        1.6145302699
O         2.5011640218       -1.3924231695        -0.4566055084
C         3.0471735962       -0.7639021887        0.6969649819
C         -2.3520441026       -1.2039014798        -0.418696621
C         1.525087296       1.193577273        0.3740350997
C         1.1324653249       -1.0684870664        -0.6316330619
C         2.9761442672       0.7512437567        0.5888425261
O         -2.4364707668       0.0237777872        -1.1358137773
O         -0.2752859937       0.8380724531        -1.3677910095
C         -1.6003920844       1.2770707832        0.762204526
H         -3.5926962175       -0.6256620111        1.2223415957
H         -2.4946637652       -1.9559977919        1.5844354567
H         1.657846973       0.6750866411        -1.6655280047
H         -1.8017821999       0.2649694297        2.6479475072
H         -0.5755303648       -0.437757581        1.6229640839
H         4.0756778479       -1.1094695387        0.7737076908
H         2.5000926722       -1.1031403936        1.585413541
H         -1.384111546       -1.6745077798        -0.6041795116
H         -3.1180637431       -1.8449076911        -0.8495609173
H         0.9599704321       0.9575082434        1.2743924042
H         1.4617092556       2.2690168235        0.2063319895
H         3.5964116908       1.0782628247        -0.2479541624
H         3.380697254       1.1991369077        1.4965454601
H         -2.5687714654       1.7578585047        0.9180320797
H         -0.8452375708       2.0014959224        1.0551540406
H         -1.917473916       1.920108809        -1.2451470257
H         0.5649550118       -1.4182208227        0.2360133913
H         0.7866484812       -1.601156962        -1.5162526298

