31 
 
C         -3.1287710794       -1.1170026429        0.062121955
C         -1.3231149382       1.1810274515        0.3115080363
C         1.0229460468       0.6236881706        -0.5550916976
C         -1.8787505459       -1.2918708984        0.9178040285
O         2.3749233393       -1.3292621947        -0.8184427007
C         3.2703195659       -0.9392982855        0.2173655767
C         -2.8156811148       -0.114930358        -1.0298362084
C         1.9425024096       1.1626114869        0.5380902771
C         1.0510040176       -0.9034972833        -0.5394557446
C         3.3428779872       0.5742553228        0.3446795352
O         -2.4996516675       1.1469945813        -0.4535927736
O         -0.2390748652       1.2724462653        -0.6037800292
C         -1.3265701324       0.0672763537        1.3687545036
H         -3.9597493475       -0.7365270688        0.6599145648
H         -3.4357667416       -2.0677466819        -0.3736439878
H         1.4649599729       0.9028893368        -1.5148370178
H         -2.0895269327       -1.8920573855        1.8026263105
H         -1.1485146522       -1.8466024627        0.3332184164
H         4.2384353337       -1.3627596593        -0.0407195742
H         2.9381838249       -1.38377955        1.1634510574
H         -1.9795731831       -0.4603524968        -1.6469839615
H         -3.668434842       0.0647410359        -1.6804108891
H         1.5600829461       0.8860517447        1.5234492218
H         1.9673468507       2.2511392483        0.4879033344
H         3.7878770126       0.9826860398        -0.5649559056
H         3.9939346976       0.8392845573        1.1779259636
H         -1.9845083255       0.4452465691        2.1539520117
H         -0.3422527313       -0.0309540264        1.8217244658
H         -1.3631812858       2.1405351175        0.8272474316
H         0.7557089564       -1.3037429842        0.4325745896
H         0.4055904238       -1.3168453031        -1.3133937899

