31 
 
C         -3.7656597614       -0.0733517834        -0.1623673702
C         -0.9880869271       0.1400169328        0.5753656383
C         1.0903528511       0.1431730476        -0.6784775082
C         -2.8522391963       -1.2867311737        -0.3232993756
O         2.992535765       -1.290047613        -0.2592447546
C         3.6721682238       -0.2665570775        0.4579931076
C         -2.9427132932       1.199393815        -0.2613140147
C         1.78394101       1.3095373333        0.0162362798
C         1.588314011       -1.1876119809        -0.1164706282
 C         3.2989532377       1.1109653755        -0.0647501122
O         -1.8849590679       1.2144460005        0.6998366412
O         -0.3282342157       0.239756799        -0.6733713175
C         -1.7117779261       -1.197350984        0.6883771328
H         -4.2569502676       -0.1065810125        0.8130378817
H         -4.5437188662       -0.0591070709        -0.926151957
H         1.3584660313       0.1655197431        -1.7365671837
H         -3.4072465952       -2.2137045314        -0.1843368877
H         -2.4408129019       -1.3012095587        -1.3347342668
H         4.7347379321       -0.4645501192        0.3364706366
H         3.4228808328       -0.3468392851        1.5232409862
H         -2.52088497       1.3016892854        -1.2643418149
H         -3.5411323571       2.0820858698        -0.0479634218
H         1.4862827199       1.3532839905        1.0667594674
H         1.4812196865       2.2460632906        -0.4518968115
H         3.6306824188       1.1960925328        -1.1016315737
H         3.8196715481       1.8749946256        0.5124547333
H         -2.1089940033       -1.2748573843        1.7028915545
H         -0.9942296249       -2.0054137785        0.5503232169
H         -0.2803659799       0.2659999196        1.3933018699
H         1.318420209       -1.284396815        0.9432169118
H         1.1472594767       -2.0182803931        -0.6653620598

