31 
 
C         -2.4757618141       -1.2808406008        -0.0070764846
O         -2.3996816623       -0.4871144556        1.1733747319
C         -2.0734830861       0.7002313479        -1.4394672628
O         2.5407444777       -1.3904607552        -0.5807130856
C         -1.4913164198       0.5852674133        1.0946356559
C         -1.7401294743       1.4544201812        -0.145040779
C         2.9594974765       1.0015049068        -0.5702400931
O         -0.173359956       0.113420575        1.2987198478
C         1.8073362459       1.2022041521        0.4147063391
C         3.541268606       -0.3937446934        -0.4116056758
C         0.7968858831       0.0728108414        0.2629245514
C         1.5112696284       -1.2692978292        0.3816802504
C         -3.0233579439       -0.4609866621        -1.1592889726
H         -1.4839494114       -1.6775662731        -0.2516676971
H         -3.1225498369       -2.1196367625        0.2392172865
H         -1.1743096445       0.3090765434        -1.9157075255
H         -2.5168361567       1.3991778807        -2.1481838666
H         -1.7083558376       1.1769040394        1.9822487798
H         -2.6026460421       2.0707297664        0.113871232
H         -0.9021066187       2.1360350792        -0.2865722232
H         3.7404181785       1.7442450927        -0.4068088414
H         2.6001614951       1.1204785819        -1.5947914924
H         2.1858601569       1.1764081355        1.4404730742
H         1.3258793115       2.1689942412        0.2671018358
H         4.3026604482       -0.5961387512        -1.1616752031
H         3.9932916388       -0.5028428953        0.5818079528
H         0.3337124799       0.1240166973        -0.7205937997
H         0.8144553371       -2.0887913229        0.2142745652
H         1.923380619       -1.3623358152        1.3943547855
H         -3.1406606218       -1.0881821699        -2.0429602554
H         -4.0111214563       -0.0874134891        -0.8805616305

