31 
 
C         -2.7909520202       -1.1038840996        0.3464535844
O         -2.4910970691       -0.070751278        1.2828369058
C         -2.0579418058       0.3446527508        -1.5232467792
O         2.6817595201       -1.3458959865        -0.6203036555
C         -1.404816835       0.7421163321        0.9184295346
C         -1.6276136245       1.3604944692        -0.461492261
C         3.056384874       1.0445612472        -0.3976396879
O         -0.2277113425       -0.0362204665        1.0747221672
C         1.8110242546       1.1608731608        0.4816925313
C         3.6429514802       -0.3532764905        -0.2815857022
C         0.8429218572       0.032181714        0.1491050155
C         1.5609293351       -1.3082170324        0.2414568105
C         -3.2008864227       -0.514843319        -0.9898359448
H         -1.9177455362       -1.7525361606        0.2276010897
H         -3.592066281       -1.684309284        0.7980038481
H         -1.2287833233       -0.3111310328        -1.7953925711
H         -2.3550739201       0.8715242114        -2.429480219
H         -1.3834891612       1.5293991542        1.6728182831
H         -2.4330518296       2.0845906684        -0.3248503473
H         -0.7503994545       1.9266602244        -0.7723514641
H         3.8057243471       1.7806807106        -0.1064152551
H         2.796429297       1.2336820177        -1.4414940236
H         2.0888005754       1.0663216932        1.5351990117
H         1.3273956833       2.130542037        0.3553115695
H         4.4782375016       -0.4933411003        -0.9642129881
H         3.9963258123       -0.5293086085        0.7417822528
H         0.4858636926       0.1489285286        -0.87366601
H         0.8930750595       -2.1139331181        -0.0588832988
H         1.8726901385       -1.4766849083        1.2797989798
H         -3.445798658       -1.3162028494        -1.6871213309
H         -4.0974281446       0.0933358147        -0.8501660453

