31 
 
C         -1.8201606258       -1.4667991418        -0.3900713072
O         -1.6172834531       -0.9970616341        0.9474773394
C         -2.5187992805       0.82200775        -1.0935977079
O         2.4014680906       -1.3829102203        -0.2263056095
C         -1.4968325685       0.3790847063        1.1969028421
C         -2.4607840533       1.2297103018        0.3746067001
C         2.9401608757       0.8729731103        -0.9376413278
O         -0.1649514424       0.8761433096        1.1121053195
C         1.8251632197       1.4202304633        -0.0479453142
C         3.4555736143       -0.4414952088        -0.3752123609
C         0.7556036835       0.359076363        0.1646772541
C         1.40768813       -0.926083994        0.6738600031
C         -2.8516749626       -0.664654638        -1.1617024669
H         -0.8698631364       -1.4783726542        -0.929004913
H         -2.1402059276       -2.5000648303        -0.2724591019
H         -1.5666955461       1.0217039128        -1.5899390603
H         -3.2750945344       1.4099339156        -1.6122872858
H         -1.738236919       0.4888134318        2.2530061042
H         -3.4552746783       1.1054423645        0.8098206114
H         -2.175072049       2.2725027093        0.501024907
H         3.7600621099       1.5876423624        -1.0104688258
H         2.5616561286       0.7007120953        -1.9475024492
H         2.2298474718       1.6938163788        0.930579065
H         1.3736354922       2.3130928891        -0.4804805171
 H         4.1849757074       -0.9007300669        -1.039048894
H         3.9291810459       -0.2741261423        0.5999744513
H         0.2711996352       0.1612589034        -0.7932604068
H         0.6793676043       -1.7252021209        0.7781083765
H         1.849000572       -0.7219266859        1.6580535739
H          -2.8753541991       -1.0271148255        -2.1893512529
H         -3.8401480048       -0.8325938042        -0.7280547461

