31 
 
C         -1.8713138847       -1.4631089617        -0.3398076749
O         -1.7085267119       -0.9556216454        0.9880924558
C         -2.4148385602       0.8062345341        -1.1948549149
O         2.3551612273       -1.3958422824        -0.3102193595
C         -1.5038415238       0.4214671447        1.1915520159
C         -2.3117638988       1.3124582471        0.2424161325
C         2.9032873676       0.8950453502        -0.9007104217
O         -0.1349810941       0.7805080339        1.2597466084
C         1.8279248681       1.403476246        0.0591489551
C         3.4170251904       -0.4594057914        -0.4396646941
C         0.7537117399       0.3428507388        0.242896017
C         1.4025030358       -0.9780440649        0.6504413324
C         -2.8510545718       -0.6538420647        -1.1666610773
H         -0.9042217062       -1.5136579657        -0.8473123339
H         -2.2229956329       -2.4836395252        -0.2031285838
H         -1.4632499243       0.9020696798        -1.7202601275
H         -3.1359326035       1.4139756778        -1.7406039246
H         -1.8468651282       0.6035054357        2.2084516322
H         -3.323142225       1.3646432852        0.6518247818
H         -1.8914912586       2.31577232        0.2926522491
H         3.7324423328       1.6002747826        -0.9590352546
H         2.4871398302       0.7913936204        -1.9051752535
H         2.2697768238       1.6123248252        1.0375996112
H         1.375229559       2.3265164808        -0.3035336364
H         4.1150719922       -0.8853782818        -1.1571433116
H         3.9277374122       -0.3596030124        0.5259526823
H         0.2315234883       0.2076130424        -0.7052295827
H         0.6619307995       -1.769130083        0.7377861635
H         1.8822493766       -0.839404081        1.6278376207
H         -2.8990692631       -1.0780579117        -2.1694981306
H         -3.8470620566       -0.7307987732        -0.7242419762

