31 
 
C         -2.5356333699       1.3360094634        -0.4507482917
O         -1.785580622       0.4528534634        -1.2863436851
C         -3.0950054131       -0.5634017679        1.0625143313
O         3.1712899564       -0.9952967257        -0.5555540581
C         -1.2054312679       -0.6276665305        -0.5884235842
C         -2.2557979625       -1.448631455        0.1423513865
C         3.154122829       1.3170617759        0.1936967062
O         -0.2705800888       -0.1635864019        0.3553151569
C         1.6985748882       1.1691069626        0.6382190836
C         3.8550210165       -0.031615077        0.2365908569
C         1.0280268871       0.0737444134        -0.1706775656
C         1.8520833967       -1.2077800571        -0.0903723301
C         -3.6630131334       0.6055179093        0.2592368568
H         -1.8654525433       1.79885795        0.2784106864
H         -2.9143745655       2.1120180154        -1.112024124
H         -2.4698215237       -0.1802013454        1.8715612058
H         -3.894411682       -1.1467245727        1.5180111855
H         -0.7061054613       -1.2208954759        -1.3562356864
H         -2.8975193945       -1.9100052922        -0.6105479744
H         -1.7571823455       -2.2452123065        0.6933393096
H         3.6826242835       2.0231310755        0.8341675801
H         3.1940208032       1.7034834301        -0.826921192
H         1.6590791283       0.8870412942        1.6942990464
H         1.1496144809       2.1037991588        0.5238139958
H         4.8641387356       0.031926301        -0.1644893909
H         3.9133524634       -0.3931419149        1.2704566401
H         0.9521197295       0.3900841903        -1.2162588351
H         1.4182294691       -1.9938232728        -0.7068966601
H         1.865811991       -1.5491855469        0.9524504608
H         -4.1964518054       1.3052180676        0.903326158
H         -4.3708858798       0.2329332718        -0.485190269

