31 
 
C         -3.0113771841       -0.9131889349        0.6019474236
O         -2.3884889218       0.1195243094        1.3715788916
C         -2.2381460151       0.1906233826        -1.4942116887
O         2.9392858757       -1.2587585153        -0.6282002835
C         -1.2570403012       0.6804973611        0.7659749551
C         -1.5996568843       1.2548257599        -0.6049191033
C         3.052898222       1.1340113789        -0.23411159
O         -0.2771313239       -0.3457559151        0.7253550465
C         1.7028718398       1.089793374        0.4834775883
C         3.7533033388       -0.2096816222        -0.1185056567
C         0.8966984188       -0.099120915        -0.0278658722
C         1.7262900489       -1.3717601924        0.0882529866
C         -3.4389090678       -0.4114754624        -0.7664093799
H         -2.3207903736       -1.7528877547        0.4990923436
H         -3.8643522605       -1.2369325551        1.1937674441
H         -1.5118309146       -0.5971897075        -1.7100805156
H         -2.5382373342       0.6249142002        -2.4469734851
H         -0.9271158782       1.4703551446        1.4441158793
H         -2.3100013405       2.0653372296        -0.4308727905
H         -0.7198584422       1.6994842566        -1.0675694593
H         3.6862982678       1.9144346351        0.1874127669
H         2.9042992928       1.3655132936        -1.2910307422
H         1.8543304409       0.9608075881        1.5592297688
H         1.1614910288       2.0250230147        0.3367754199
H         4.6744220303       -0.2296225176        -0.6966687519
H         3.9956620198       -0.4196518338        0.9303647869
H         0.6525980321       0.047922003        -1.0851164038
H         1.1799817937       -2.2156597076        -0.3288245888
H         1.9272648678       -1.5701501809        1.1483211346
H         -3.8713541057       -1.2373519484        -1.331815145
H         -4.2131531705       0.3495808314        -0.6442719792

