31 
 
C         -2.1596214745       -1.3901339957        -0.2944173639
O         -2.0881689669       -0.8612524732        1.0295366669
C         -2.1856062963       0.8783644612        -1.2933077556
O         2.425022896       -1.3837609421        -0.5170053603
C         -1.5166774399       0.4172074756        1.18943976
C         -1.9629792752       1.4272159623        0.1200629982
C         2.8734346788       0.9948755632        -0.7301794451
O         -0.1271602143       0.3529298131        1.417265461
C         1.7944409868       1.2985497978        0.3098712965
C         3.4466374677       -0.3941394254        -0.4986643235
C         0.7666958849       0.1776838036        0.3255924675
C         1.4693418846       -1.1641775862        0.502620269
C         -2.9134182433       -0.4594568027        -1.2237256029
H         -1.155440319       -1.5843174946        -0.683759389
H         -2.6654480724       -2.3476260995        -0.191841627
H         -1.2427620576       0.7482495032        -1.8256602203
H         -2.7641806318       1.6033339901        -1.8651071885
H         -1.8946541906       0.7537058434        2.1527243585
H         -2.9164961591       1.8240495188        0.4726715406
H         -1.2572772321       2.2576343863        0.1203824204
H         3.6741439201       1.7329201968        -0.6819627039
H         2.4456703246       1.0373331483        -1.7342639788
H         2.242335723       1.3597988228        1.3057419286
H         1.305819062       2.2521332718        0.1082621698
H         4.1517047683       -0.6690366701        -1.280065121
H         3.9652440909       -0.4313432841        0.4671471606
H         0.2321199615       0.1673597637        -0.6232190207
H         0.7525103995       -1.9828548725        0.4596747517
H         1.9530219113       -1.1782110795        1.487546386
 H         -2.9932690906       -0.9148738029        -2.210704922
H         -3.9254572962       -0.3189417935        -0.8370076127

