31 
 
C         3.3430802398       -0.3790713408        -0.6529759693
C         1.1389351416       0.4198083298        1.0865587682
C         -1.7497213054       1.3314856952        -0.3744888888
C         2.5081949137       0.8248517041        -1.0813296445
C         -3.5406747548       -0.3632262335        0.0033349048
O         -2.5737910685       -1.4045834399        -0.0363732462
C         2.4737831411       -1.3163136934        0.1629467837
C         -0.7637681976       0.1692111238        -0.4983898503
C         -2.9300858253       0.9334632774        0.5104077533
C         -1.5053817118       -1.0939990435        -0.9109154506
O         2.0077026566       -0.6598296268        1.3374150181
O         -0.1385497792       -0.0881867659        0.7539195302
C         1.7704782829       1.4298886457        0.1205298407
H         4.1848066741       -0.0587532029        -0.0350462055
H         3.7455506151       -0.900797482        -1.5212569984
H         -2.1093604974       1.5872908536        -1.3746134375
H         3.1379891696       1.5925168492        -1.5302257403
H         1.8113504579       0.5057144189        -1.8568305742
H         1.6194670157       -1.6655178877        -0.4279040831
H         3.0258248251       -2.1877244329        0.5072580555
H         -2.5912278587       0.7878978014        1.5370246354
H         -3.6882506146       1.7166740552        0.5176179068
H         -1.8865466429       -0.9610075111        -1.9309012156
H         -0.8292046862       -1.9468827138        -0.8952441783
H         2.4996007721       1.9741594008        0.7232040752
H         1.0246947541       2.1581289656        -0.1964228965
H         1.020450333       0.8940946312        2.0600353818
H         -3.9535987103       -0.2169111404        -1.0031175002
H         -4.3389254769       -0.7114839661        0.6553682381
H         -1.2407380502       2.208593731        0.0249237134
H         -0.0267498124       0.3840909976        -1.2678917257

