31 
 
C         3.0412912986       -0.8828804827        -0.7298738636
C         1.1236225169       0.538615655        0.8846233973
C         -1.7086161345       -0.2933305294        1.3220117573
C         2.8704103914       0.6223078666        -0.9234482626
 C         -2.9629812229       -0.8102011393        -0.7694267307
O         -2.4103800962       0.3431496531        -1.3902266007
C         1.7415940382       -1.4752602332        -0.2129715815
C         -1.2120301071       0.9777883612        0.6352493906
C         -2.0262372577       -1.3711072741        0.2890242289
C         -2.1834819488       1.3854006928        -0.4595410726
O         1.3263274291       -0.8547431346        1.0044239294
O         0.0606652645       0.8228910588        0.011267888
C         2.3756865166       1.2421346075        0.3816995762
H         3.8375911987       -1.076410617        -0.0071136424
H         3.3137691191       -1.3740575548        -1.6645107483
H         -2.6158361716       -0.0323752447        1.8735166039
H         3.8079916588       1.0859575542        -1.228070742
H         2.1427781489       0.807160168        -1.7166654028
H         0.9563878462       -1.3581367217        -0.9653277099
H         1.8428442132       -2.5335956368        0.0174202227
H         -1.1047389425       -1.7075786416        -0.1872562545
H         -2.4903422376       -2.2358903589        0.7638640035
H         -3.1304898039       1.6862718454        0.0040447518
H         -1.7822928563       2.226076553        -1.0219907422
H         3.1436431245       1.1374543261        1.1506573141
H         2.1572808946       2.3031630803        0.2679819531
H         0.8718873183       0.8735953079        1.8933697392
H         -3.927156663       -0.5471577428        -0.3157126099
H         -3.1429600471       -1.5288051287        -1.5661998547
H         -0.9762695837       -0.6453841459        2.0467476734
H         -1.1490509047       1.7945938563        1.3622773894

