31 
 
C         2.966952127       -1.0127447816        0.1405335355
C         0.8121617273       0.8686847668        0.481577672
C         -2.0623235781       1.3862732969        0.0396793627
C         3.1230167033       0.4081673783        -0.3992197724
C         -2.7254854716       -0.9675025658        0.5647035371
O         -1.711531159       -1.4614069827        -0.2972019822
C         1.4942331541       -1.3862807036        0.1763251778
C         -1.1291252969       0.8316954758        -1.0394064126
C         -2.3454744602       0.3804923144        1.1602222324
 C         -1.5059490562       -0.6024734724        -1.3980761356
O         0.7405688506       -0.4548067943        0.9479396542
O         0.2681912259       1.0384038604        -0.8030595603
C         2.252439162       1.3606172796        0.4188939767
H         3.3747042567       -1.0707270669        1.152779194
H          3.5076981554       -1.7311256519        -0.4764977284
H         -3.0063871575       1.6216995695        -0.4570690788
H         4.1646375745       0.7257628311        -0.3608662802
H         2.8126738307       0.4358855777        -1.4456313473
H         1.0919845993       -1.4296845436        -0.8385190789
H         1.3342761415       -2.353817798        0.6470824907
H         -1.4740640389       0.2419562912        1.797701064
H         -3.1640372223       0.7395235012        1.7851720779
H         -2.4288130533       -0.5524104958        -1.991782328
H         -0.7280980262       -1.0469377687        -2.0162317124
H         2.6254316488       1.4098367302        1.4436372356
H         2.2644893809       2.3695147116        0.0089686555
H         0.2427620554       1.4486562383        1.2095461265
H         -3.6646190622       -0.8792858662        0.0021438796
H         -2.8611047605       -1.7174267848        1.3412717281
H         -1.6680048947       2.3263627057        0.4257008853
H         -1.293465356       1.4092997475        -1.9507490686

