31 
 
C         -3.5268467719       -0.3582785011        0.8154756641
C         2.3355135043       -1.2315308074        -0.3814908005
C         2.626946751       1.4859287834        0.4543059183
O         3.4969540388       -0.4751459122        -0.685627955
O         -1.3313346211       0.4544571168        -0.8462360902
C         -2.6660018316       0.8342794556        -1.1944344551
O         0.0297096954       -1.2086501096        0.0273454877
C         -3.5401150438       0.9570800441        0.0401764242
C         1.323107215       0.7440188468        0.748193173
C         -1.3059673513       -0.8099227834        -0.220907172
C         3.7708054929       0.4974215014        0.3231103963
C         1.1063712838       -0.3357473753        -0.3033058967
C         -2.0838971427       -0.784719602        1.0808103048
H         -4.073566057       -0.2644828171        1.7527773629
H         -4.0272168447       -1.129699299        0.2238619219
H         2.4682278862       -1.7506029339        0.5752206676
H         2.217530508       -1.9704514721        -1.1717167597
H         2.535219569       2.0488730422        -0.4772168977
H         2.85360193       2.1964277021        1.249414698
H         -3.079599834       0.0871696772        -1.8805987674
H         -2.5766807922       1.7799003648        -1.7239002714
H         -3.1549278556       1.7639582448        0.6677808656
H         -4.5519140259       1.225030346        -0.2651710409
H         1.3894016315       0.2551604942        1.7246770666
H         0.4773080926       1.4294717653        0.7727470823
H         -1.7446354086       -1.5422153626        -0.9110592758
H         4.6941734475       0.9903670118        0.0263911087
H         3.9381098723       -0.0175092332        1.275973018
H         0.9474357876       0.1167069413        -1.2825852712
H         -1.5887176745       -0.0746618161        1.7485044086
H         -2.037110451       -1.7735703129        1.5370130848

