31 
 
C         -3.32671768       -0.8784822028        -0.9146608531
C         2.235534738       -1.1265079241        0.6984666302
C         3.0539581781       1.1525008881        -0.8247657704
O         3.4793275841       -1.087115981        0.0176375405
O         -1.8810168658       0.8296293707        0.8896823786
C         -3.0908931363       1.2936214225        0.2824430824
O         -0.0036412452       -0.3897571256        0.7374682611
C         -4.0310948705       0.1417649157        -0.0239436846
C         1.6729459467       1.1421817176        -0.1699955489
C         -1.1744769399       -0.0502071283        0.0358297562
C         3.9970116792       0.2416705612        -0.059897632
C         1.1931730426       -0.2946186315        -0.031984851
C         -1.9980409978       -1.2831307702        -0.277915168
H         -3.9532105435       -1.7546250212        -1.0764234673
H         -3.1358117564       -0.4305524354        -1.8936365017
H         2.3537936102       -0.7428445062        1.7187407877
H         1.926514334       -2.1689320277        0.7457015114
H         2.9817797657       0.8033922693        -1.857096583
H         3.4634768892       2.1624124784        -0.844067897
H         -2.8398031197       1.8328066087        -0.6377766839
H         -3.5281498564       1.9969201595        0.9871953777
H         -4.3338381727       -0.3287176265        0.9142394101
H         -4.9274669463       0.5332282912        -0.5057377471
H         1.7356388358       1.5745134125        0.8324391352
H         0.9609990981       1.732767663        -0.7470893474
H         -0.9212104338       0.486577076        -0.8865210279
H         4.9633353127       0.1614200801        -0.5529583937
H         4.1510942891       0.6218722145        0.9561576755
H         1.0282730584       -0.7348085574        -1.0208818934
H         -2.1699424821       -1.8149849982        0.6608973238
H         -1.4181823156       -1.930611193        -0.9369718198

