31 
 
C         -2.9728951965       1.3360334118        -0.5314462537
C         2.2639302327       -1.2232343667        -0.5656827657
C         2.9405414195       1.311882524        0.546451369
O         3.5101908251       -0.6024050062        -0.8304520693
O         -2.1305273108       -1.2268828487        0.4322760117
C         -3.3829372493       -0.6851553413        0.8599779411
O         -0.0121253063       -0.9494770646        -0.1140227428
C         -3.9702599788       0.2303912221        -0.198146255
C         1.5466577117       0.736681564        0.8026572409
C         -1.1714831089       -0.214959848        0.2061863866
C         3.9347477993       0.1998318359        0.2715667552
C         1.1694930052       -0.1870909507        -0.3475273881
C         -1.6167178458       0.7293920535        -0.8946805514
H         -3.3367340819       1.957121145        -1.3487926354
H         -2.8524459399       1.9856603578        0.3397419392
H         2.3421108981       -1.8551073689        0.3267032409
H         2.0262369239       -1.8494965121        -1.423508918
H         2.9120665345       1.9815592767        -0.315893674
H         3.2755133908       1.8935783424        1.4051333402
H         -3.2315945627       -0.1366221053        1.7960979902
H         -4.0242203173       -1.5404036162        1.0591297894
H         -4.1910030927       -0.3563842374        -1.0926352384
H         -4.9090841326       0.6454174336        0.1694690182
H         1.5452416113       0.1551263655        1.7291305664
H         0.8229157963       1.544456271        0.9102081976
H         -1.0238850939       0.335298104        1.1443949856
H         4.9116577113       0.5951946033        0.0018978793
H         4.045603004       -0.4398620168        1.1542390591
H         1.0582876864       0.3964928158        -1.2665951107
H         -1.6858151503       0.1568526201        -1.8229638394
H         -0.871906182       1.5138783362        -1.0293642685

