31 
 
C         -2.9015289452       1.3964955081        -0.4644727435
C         2.2360310595       -1.2508547567        -0.5032214779
C         2.9447211417       1.3388793247        0.4672402113
O         3.454689533       -0.624575408        -0.8680260363
O         -2.1826343444       -1.2441357699        0.3391167052
C         -3.4687291744       -0.7290943284        0.6911899822
O         -0.0122704873       -0.9671998529        0.0877151145
C         -3.9398355074       0.2866832922        -0.3321879438
C         1.5821872673       0.7493957691        0.8319588264
C         -1.1949123274       -0.2338821563        0.3205059524
C         3.93588265       0.2288526099        0.1707113256
C         1.1455893694       -0.2164458465        -0.2613891481
C         -1.5179241683       0.8042075968        -0.7407970516
H         -3.1726539706       2.0921613647        -1.2573580724
H         -2.8647960251       1.967147437        0.4674935616
H         2.3778717608       -1.8457503664        0.4065697182
H         1.9566464991       -1.913142221        -1.32037844
H         2.8503967813       1.9753967105        -0.4153003967
H         3.325807772       1.9559189639        1.2808883931
H         -3.4109925684       -0.2718471136        1.6849050341
H         -4.1300510745       -1.5906540189        0.7438136801
H         -4.0759363493       -0.2146704179        -1.2929970762
H         -4.9059254412       0.686773801        -0.0234780323
H         1.6562039316       0.1920486215        1.7701962121
H         0.8461199248       1.5416896763        0.9702136115
H         -1.1534177354       0.236658454        1.3124502596
H         4.8871443822       0.6248742553        -0.1780275923
H         4.1135596293       -0.3722063262        1.069498808
H         0.9752275547       0.325919569        -1.1951301236
H         -1.4976866782       0.3107846369        -1.715771865
H         -0.7673314594       1.5935439919        -0.7393923963

