31 
 
C         -3.0235973973       1.3855228608        -0.1523894712
C         2.0388024697       -1.3396381932        0.1223327146
C         2.9882765707       1.3075780386        -0.3590141897
O         3.1458499732       -1.0857689586        -0.7273674069
O         -1.8997771974       -1.2425959459        0.0254672481
C         -3.3123865126       -1.0827175237        -0.1176800639
O         0.0120691437       -0.5559404679        1.0119949564
C         -3.6460961532       0.1919006878        -0.8697711089
C         1.7441862518       1.1049285724        0.5069971847
C         -1.3102325911       -0.1678313948        0.7492717746
C         3.8688696301       0.0733476376        -0.312740653
C         1.0462426727       -0.1832454806        0.0983180356
C         -1.5223794949       1.1601612644        0.0456449621
H         -3.1885640003       2.3063904288        -0.7099736377
H         -3.5007054145       1.5068931098        0.8236786602
H         2.3851000663       -1.4956301715        1.1509999642
H         1.5623875511       -2.2514294671        -0.2326708538
H         2.6954460334       1.4954240411        -1.3944111153
H         3.557215053       2.1712052133        -0.0146057907
H         -3.7683886948       -1.0628716739        0.8787992762
H         -3.6642499862       -1.9685549108        -0.6413842362
H         -3.2529228977       0.1196119279        -1.8863750866
H         -4.7294160955       0.2957693017        -0.936515449
H         2.0360861885       1.0105038317        1.5567264002
H         1.0732515644       1.9572322332        0.4211956564
H         -1.7964940539       -0.1286890625        1.730689346
H         4.716460468       0.1605263679        -0.9890436852
H         4.2450150208       -0.0877809091        0.7037724846
H         0.6487643706       -0.1027463989        -0.915263878
H         -1.021037572       1.1602880807        -0.9230039655
H         -1.0955079667       1.9540869609        0.6567169278

