31 
 
C         -3.6275095227       -0.5430660991        0.5924761513
C         2.3034620856       -1.2208791526        -0.4670582508
C         2.7419469026       1.4178988993        0.5381347615
O         3.4854303981       -0.4935205883        -0.7632430682
O         -1.314786977       0.6545224485        -0.6203664104
C         -2.6239936134       1.072772642        -1.0182203185
O         0.0140419063       -1.1281480506        0.039099974
C         -3.6202446719       0.9074728862        0.1153297809
C         1.4174416916       0.7123935423        0.8295810696
C         -1.3009519252       -0.7137619209        -0.2723282624
C         3.8365933922       0.394576628        0.2979331657
C         1.117208877       -0.2837330025        -0.2814046667
C         -2.2013137379       -0.9863229353        0.9143677851
H         -4.2678064354       -0.6630913806        1.4652235586
H         -4.0332747003       -1.1801430443        -0.197898327
H         2.446976206       -1.8097914016        0.4467771343
H         2.1258153054       -1.8982347244        -1.3001091554
H         2.6433497073       2.046802738        -0.3494778303
H         3.0262238669       2.0622285423        1.3702604217
H         -2.9353022537       0.4827597899        -1.8872108306
H         -2.5239698282       2.1120440933        -1.3221288666
H         -3.3349119744       1.5686008701        0.9367212567
H         -4.6076927458       1.2130619134        -0.2315687269
H         1.4963806205       0.1553185919        1.7677628385
H         0.6033465787       1.4278944449        0.9314405997
H         -1.6423139036       -1.2829478625        -1.1483604706
H         4.769673022       0.8685174845        0.0006847994
H         4.0143517045       -0.1914619315        1.2067458626
H         0.9405445335       0.2383874176        -1.2226100796
H         -1.8056018464       -0.4235721965        1.7638196427
H         -2.1570176623       -2.0483956412        1.1553234614

