31 
 
C         -3.4769449114       0.914479214        -0.2576901183
C         1.6929587831       -1.0418476931        0.5693124712
C         3.2029841682       0.9567694262        -0.8088318832
O         2.7508653869       -1.3783982847        -0.3172019842
O         -1.3511952482       -0.9764522286        0.1026150629
C         -2.689114477       -1.4402612609        -0.1038421569
O         0.0100787802       0.6035039553        1.0933897012
C         -3.4872916007       -0.4530855794        -0.9350496051
C         2.0256407564       1.3756388675        0.070259366
C         -1.3262643518       0.2387927472        0.8244341685
C         3.7622018163       -0.3721494938        -0.3338879242
C         1.008283141       0.2490100776        0.1353218653
C         -2.0379939153       1.3304447951        0.0437529434
H         -3.9671786674       1.6626771203        -0.8792380326
H         -4.0365161493       0.8545936069        0.6798988433
H         2.0850920295       -0.9089099374        1.5849148369
H         0.9947389801       -1.8747518321        0.5647688812
H         2.8759754547       0.8532083858        -1.8457661654
H         3.9904482583       1.7100904463        -0.7830235031
H         -3.1670008918       -1.5912831272        0.8703201209
H         -2.59642419       -2.404825302        -0.5974089546
H         -3.038632889       -0.3818024672        -1.9284737171
H         -4.5045026427       -0.8272325233        -1.053792352
H         2.3776489976       1.5804600895        1.0853283868
H         1.5499040472       2.2803445439        -0.3090148117
H         -1.8015826173       0.0883951536        1.7994441858
H         4.5435485948       -0.7365802508        -0.9974692631
H         4.1776955588       -0.2700608713        0.6750781669
H         0.5588035463       0.1075912104        -0.8490326814
H         -1.4836117999       1.4913738284        -0.8852821991
H         -2.0042909475       2.2515923838        0.6252883517

