31 
 
C         -3.4978613529       -1.0953723125        0.0792148988
C         1.7609503628       -1.1334650798        -0.3177388478
C         3.4755372095       1.1001389854        0.1544535767
O         2.9627899601       -0.9495197917        -1.0502245488
O         -1.7110245365       1.1380596428        -0.1082196828
C         -2.8947199245       1.1100471404        -0.9104407099
O         -0.0205855441       -0.0179308431        0.8547992195
C         -3.9930214366       0.3162814395        -0.2260544987
C         2.1531399378       0.9952623147        0.913752395
C         -1.1868392885       -0.1672022418        0.0963696272
C         3.9510227928       -0.2786087578        -0.2674545573
C         1.1595076533       0.2086672116        0.0817272395
C         -2.1762508793       -1.0332801788        0.8449833002
H         -4.238588051       -1.6527903458        0.6509124926
H         -3.3424470069       -1.6321045519        -0.8604826091
H         1.9595515181       -1.7161222396        0.5896517376
H         1.0797775202       -1.6950952023        -0.9553195962
H         3.3444675728       1.7180128076        -0.7364608482
H         4.238736272       1.5701292856        0.7745563793
H         -2.6559347159       0.6672779016        -1.8838955048
H         -3.1796148084       2.1483773491        -1.0636565809
H         -4.2706161235       0.8230471871        0.7009674272
H         -4.8726485919       0.2924644473        -0.8699103986
H         2.3088429219       0.464460774        1.8571377699
H         1.7491293143       1.9809467525        1.1438627586
H         -0.9562576904       -0.6020580869        -0.8843833875
H         4.8418494702       -0.2197935938        -0.8890266379
H         4.1774757019       -0.8883652469        0.6143217979
H         0.9035308834       0.7749676352        -0.8184453453
H         -2.3272375189       -0.5924410037        1.8332937461
H         -1.7458276218       -2.026250398        0.9742513877

