31 
 
C         -3.4013272192       0.0348227058        0.9949087678
C         2.3553134114       -1.2745620531        -0.0667382009
C         2.5238980489       1.5733512252        0.0619418465
O         3.4974568428       -0.5707292577        -0.5281353118
O         -1.3663892299       0.0415285375        -1.0299619239
C         -2.7204378991       0.3435635324        -1.3802225608
O         0.0420469971       -1.2629123588        0.2612223396
C         -3.4616468446       0.9677863513        -0.2120136426
C         1.2361324017       0.8777593854        0.5043654128
C         -1.3033883694       -0.8956692524        0.0231987566
C         3.7051867982       0.6330035583        0.2109311192
C         1.0925685663       -0.4413966591        -0.243293297
C         -1.9481416478       -0.3411124857        1.2813551368
H         -3.8537997394       0.4986876142        1.8703387485
H         -3.9718407372       -0.8721745471        0.7769049967
H         2.4768252636       -1.5294300887        0.9926837614
H         2.2880406012       -2.1931340317        -0.6464897784
H         2.4432253641       1.8780326687        -0.9838663309
H         2.6987681196       2.4709383759        0.6552935587
H         -3.218481351       -0.5790845676        -1.697657448
H         -2.6631300618       1.0178197629        -2.2315146327
H         -2.9951646443       1.9249694831        0.0324494565
H         -4.4923462521       1.1642561706        -0.5083744118
H         1.2829525855       0.6595137695        1.575370357
H         0.3704096356       1.5147847327        0.3289452097
H         -1.8227253079       -1.8091990537        -0.2906510298
H         4.620173223       1.074339489        -0.1784305649
H         3.8588824059       0.379516113        1.2659653332
H         0.9498043131       -0.2541386448        -1.308178369
H         -1.3810635364       0.5374395094        1.5966573183
H         -1.8790947381       -1.0928489849        2.0677143831

