31 
 
C         -3.0301710595       -1.2752952452        -0.6835194299
C         1.7959065907       -0.9784066128        0.6057222905
C         3.4431873844       0.9199168534        -0.7575642092
O         3.0043241104       -1.3585821927        -0.0348236283
O         -2.1725254558       1.1395119992        0.6123821251
C         -3.4662646326       1.0772717412        0.0046699257
O         -0.026221086       0.5787092299        0.6115196216
C         -4.0121638237       -0.3388754686        0.0152115586
C         2.1150590689       1.3756306211        -0.1544220678
C         -1.2334939611       0.3410238567        -0.0746983929
C         3.9620270033       -0.2999093808        -0.0176122803
C         1.149943359       0.2041129783        -0.1055423236
C         -1.6407928955       -1.1200643414        -0.0651534632
H         -3.3608699216       -2.3107078113        -0.6146459926
H         -2.9824475795       -1.0198228217        -1.7455239225
H         1.9961426974       -0.7007922093        1.6474800457
H         1.1377003281       -1.8453248004        0.592494897
H         3.3068525655       0.6642203209        -1.8106113521
H         4.184268781       1.7173858695        -0.7031580791
H         -3.3918611158       1.447455073        -1.0237491944
H         -4.0945572545       1.7583601668        0.5735797188
H         -4.1581077646       -0.6559722267        1.0502400838
H         -4.984609308       -0.3486506223        -0.4777574968
H         2.2745490112       1.7279116378        0.8684637087
H         1.6780178916       2.1933877255        -0.7277042722
H         -1.145997933       0.7085415688        -1.1069828216
H         4.8613487587       -0.6966873457        -0.4837046016
H         4.1892787703       -0.0444327664        1.0235161584
H         0.8862955237       -0.0977939209        -1.123166175
H         -1.6419726993       -1.4585822793        0.9739091343
H         -0.8992923536       -1.7014825967        -0.614498565

