31 
 
C         1.2270419438       0.5393349883        -0.6109565225
C         -3.6149300391       -0.8476738379        0.3899323391
C         -1.1521614182       0.7377244599        -0.0538121545
C         -2.1636451429       -1.3359290567        0.4438273204
C         -3.6419410572       0.6477152409        0.0338187425
C         1.5341154939       0.7939254352        0.8605551569
C         1.8752454611       -0.7712851752        -1.0453236292
C         3.6040412967       -0.5803394515        0.5229253394
O         3.2746195964       -0.7562659408        -0.8486556999
C         3.0517301957       0.7314369578        1.0544103511
O         -0.1493221754       0.4278415253        -0.9829151597
C         -2.4376393988       0.9820138705        -0.8410180082
O         -1.309280329       -0.2921291627        0.903001587
H         1.6606918756       1.3521557806        -1.2019839138
H         -4.1080001193       -1.0171191044        1.3462940852
H         -4.1528557893       -1.4273962643        -0.3614794706
H         -0.8842917147       1.6189687114        0.5279590113
H         -2.0404347764       -2.1639300049        1.1372457046
H         -1.8249900462       -1.6704678775        -0.5397195468
H         -3.5945842214       1.2458974937        0.9450625231
H         -4.5699977351       0.9085961233        -0.471226587
H         1.1609450678       1.7657895817        1.1809563441
H         1.0488465732       0.0300110761        1.4696823431
H         1.6994370937       -0.9424003349        -2.1056912962
H         1.4164019442       -1.5902396482        -0.4754643611
H         3.2004073044       -1.4208095811        1.1008034791
H         4.6898110042       -0.6088886657        0.5836808123
H         3.3005337582       0.8303977099        2.1110093422
H         3.5312027043       1.5570215514        0.5241048813
H         -2.4302440098       0.3460096607        -1.7285647208
H         -2.4513453404       2.0158399393        -1.1810732924

