31 
 
C         1.1880455705       0.2020480261        -0.6208309889
C         -3.8504365697       -0.5015539298        -0.1156835421
C         -1.0570663124       0.3653719133        0.3461616303
C         -2.5742774514       -1.0922629766        -0.7231060168
C         -3.4873688268       0.6843319468        0.7931705623
C         2.1639389466       1.3214682899        -0.2831566777
C         1.4238432351       -0.9959841354        0.3036534485
C         3.6980410154       -0.4430700509        0.5796759024
O         2.7651364725       -1.4334670223        0.1677549636
C         3.5978481831       0.7950953427        -0.2950375489
O         -0.1393140282       0.7346829507        -0.6482567237
C         -2.218719706       1.3530336035        0.2730345513
O         -1.4902892421       -0.9704644879        0.1949206896
H         1.3901874658       -0.1464814779        -1.6371877127
H         -4.3874782081       -1.2609751859        0.4510719711
H         -4.5050048509       -0.1747267342        -0.9248180066
H         -0.5914029907       0.3968088997        1.3325433321
H         -2.6798556775       -2.1526584576        -0.9369550425
H         -2.3132679619       -0.5868980052        -1.6558555118
H         -3.3090123827       0.3297889512        1.8094776968
H         -4.3069702229       1.3984752388        0.843438175
H         2.0353300617       2.1393438566        -0.9918083742
H          1.9147249266       1.7040937967        0.7118802342
H         0.7856818556       -1.8316613092        0.0351440648
H         1.2337472031       -0.7291779275        1.349409929
H         3.508089045       -0.1827676475        1.6281772472
H         4.6814263775       -0.9032485557        0.5112927177
H         4.2937066088       1.5555762851        0.0595178964
H         3.887957413       0.5306325962        -1.3141533743
H         -2.3527345959       1.6578453999        -0.7668937008
H         -1.9606723533       2.2434768063        0.8431732084

