31 
 
C         1.0960777367       0.2375942206        0.147712951
C         -3.7197421807       -0.8022285368        -0.1372018482
C         -1.2262027278       0.6995875455        0.3748792641
C         -2.2910370217       -1.3528727349        -0.0616604924
C         -3.7023816882       0.7150100366        0.1086130144
C         1.5534887628       -1.0833748382        -0.4487048343
C         2.1531853371       1.310602094        -0.0803498371
C         3.8938347614       -0.2653392904        -0.1481174245
O         3.4027496688       0.9230963595        0.4598316038
C         2.9459951112       -1.4327217886        0.0768080054
O         -0.107310978       0.6752558475        -0.4736911985
C         -2.3906386577       1.2998198922        -0.4074682343
O         -1.5209993865       -0.5903804436        0.8645927204
H         0.939970727       0.1186259629        1.2234615453
H         -4.3561118629       -1.2952512611        0.5964759278
H         -4.129131562       -1.0220072563        -1.1241350955
H         -0.9985362246       1.2858792957        1.2690065728
H         -2.2694080338       -2.381000271        0.2903689135
H         -1.8052262102       -1.3230908941        -1.0401606796
H         -3.7839824623       0.9168661243        1.1775908504
H         -4.5529431725       1.1937400986        -0.3726776169
H         0.8277365373       -1.8630763086        -0.2166237638
H         1.5852014894       -0.9702314374        -1.5361912517
H         1.86408128       2.2398357293        0.4077661682
H         2.2460478813       1.493981445        -1.1584533809
H         4.0273465562       -0.0907716712        -1.2228470092
H         4.8695639317       -0.4529019792        0.2948418428
H         3.3360006057       -2.3207767226        -0.4208280929
H         2.8985581725       -1.6479113479        1.1465703146
H         -2.2625857414       1.0557184034        -1.4639693908
H         -2.3613646491       2.383861727        -0.3161565437

