31 
 
C         1.1972768193       0.2178085354        -0.6966887804
C         -3.8051016396       -0.5452646137        0.01665477
C         -1.0237765163       0.4365853565        0.2678430798
C         -2.531746155       -1.1819922195        -0.5489138308
C         -3.4476140986       0.7570118865        0.7517548027
C         2.1019199303       1.3326672577        -0.1866947527
C         1.3989720904       -1.062870458        0.1171158843
C         3.6130311494       -0.4610073014        0.6568749062
O         2.7652885778       -1.4388430878        0.0690753003
 C         3.5485570666       0.8468276597        -0.113531106
O         -0.1470596173       0.6896365112        -0.7993639296
C         -2.2125826032       1.3808837415        0.1091041573
O         -1.425631925       -0.9151585238        0.3100007246
H         1.4900526918       -0.0197244941        -1.7223828965
H         -4.3056694215       -1.2357569298        0.6941491076
H         -4.4908591153       -0.3417228281        -0.8069043695
H         -0.5211554785       0.6077138057        1.2227311138
H         -2.6150051489       -2.2634871297        -0.6179633791
H         -2.3115718385       -0.7985034122        -1.5478109292
H         -3.230863659       0.5426341169        1.7993360771
H         -4.2841359646       1.4528989757        0.7350030494
H         2.0056460228       2.1997153969        -0.8395234229
H         1.7620719716       1.6307654153        0.8106383796
H         0.8264547183       -1.884883063        -0.301760933
H         1.0934374656       -0.9227577256        1.1599143241
H         3.312135675       -0.3019515699        1.6997502889
H         4.6163425326       -0.8815585508        0.6478220376
H         4.1846582051       1.5909799357        0.3659523116
H         3.9359016643       0.6802811564        -1.1210127337
H         -2.3857292975       1.5464147341        -0.9563041634
H         -1.9605471019       2.3428214221        0.5514929119

