31 
 
C         -1.8490772567       -1.2818782494        0.7116300892
O         -1.1853358813       -0.1084807938        1.1842700081
C         -3.2726385989       0.0972739993        -0.7896145118
O         2.8339396912       -1.1886766909        -0.7443856698
C         -1.1312358571       0.9397273569        0.2366039599
C         -2.515210566       1.3171361296        -0.2699520523
C         3.1780599156       0.8538806622        0.5220844447
O         -0.3496700798       0.5879268158        -0.8739700921
C         1.6723246722       1.1323384675        0.5202572934
C         3.4432448674       -0.6389157418        0.4162722282
C         1.0673213504       0.478317463        -0.7154961216
C         1.4311692127       -1.0044544516        -0.7254917543
C         -3.2768201959       -0.9866496635        0.2861584842
H         -1.2917785213       -1.7025558842        -0.1301075063
H         -1.8114800389       -1.9904014082        1.5361479945
H         -2.784102802       -0.2839635388        -1.6886031235
H         -4.2888963413       0.3766882098        -1.0652856916
H         -0.6846728759       1.7737640137        0.7745540337
H         -3.0596467812       1.7552291617        0.5687020538
H         -2.4088509863       2.0836738171        -1.0362457608
H         3.6323328016       1.2401792582        1.4344853039
H         3.6519412875       1.3587581262        -0.3221978802
H         1.221697448       0.7052738006        1.4187981165
H         1.4877067817       2.2068170567        0.5255266608
H         4.5074435489       -0.8482193638        0.3329270096
H         3.0557376407       -1.1532385478        1.3042826263
H         1.5028195324       0.9399896135        -1.6049428521
H         1.0290670466       -1.48345377        -1.6165616438
H         0.9984477803       -1.4833090533        0.1618988677
H         -3.7398950393       -1.9042005875        -0.0779687194
H         -3.8476237553       -0.6469422071        1.1537672051

