31 
 
C         -2.2493102291       -1.3182175649        -0.4778364077
O         -1.4373420322       -1.0373897746        0.6630708608
C         -3.2352852625       0.9688568641        -0.3326431926
O         2.6938034712       -1.3936618692        -0.117859391
C         -1.0787477647       0.3219484652        0.775872115
C         -2.309756626       1.2122747157        0.8588090291
C         3.4267401245       0.8949415607        -0.4112565986
O         -0.3246327954       0.7660313823        -0.3222059725
C         1.9955353316       1.373233672        -0.1782335439
C         3.6448339032       -0.4262186924        0.3052925168
C         1.0013510358       0.2703687707        -0.5201543782
C         1.3641352017       -1.0265813097        0.2095076846
C         -3.5442522109       -0.5236363911        -0.4424967467
H         -1.6863032237       -1.0889539408        -1.3874776266
H         -2.4345812785       -2.3895924004        -0.4485490104
H         -2.7477906638       1.3083044729        -1.2483343014
H         -4.1523743367       1.5459435072        -0.2190779089
H         -0.4938413203       0.3803322812        1.6958791085
H         -2.8293436499       0.9675575773        1.7869194328
H         -1.9915614718       2.2522856289        0.9156552625
H         4.1457935994       1.6332626403        -0.0560789609
H         3.6021246686       0.7489865369        -1.4792786266
H         1.8611529966       1.6411937796        0.8748854842
H         1.7688714732       2.2572260296        -0.773673777
H         4.6244482465       -0.8452474242        0.0854014695
H         3.5615011198       -0.2874718959        1.3902672514
H         1.0746689382       0.053502567        -1.5897337148
H         0.7259853473       -1.8460036043        -0.1047231873
H         1.2721378113       -0.9075899228        1.2951091049
H         -4.126306833       -0.7411958059        -1.3385294773
H         -4.1320925704       -0.8436968555        0.4212295023

