31 
 
C         -1.5373327826       1.2344027755        -0.6017854109
C         1.1994820389       -0.7918918622        -0.7493349236
C         -1.1017343896       -0.1844594027        -0.9214433588
C         3.1947896346       0.7254863401        0.6746907822
C         -3.1811178224       0.5083988486        0.9180501658
O         -2.0369079409       1.3404710634        0.7247927833
C         2.637956705       -0.5492994391        1.3030883309
C         2.1513470909       1.3376891327        -0.2404172507
C         2.1612612443       -1.4875409194        0.1968466264
C         -2.841036501       -0.9564712628        0.7025929989
O         1.7362590511       0.4166192311        -1.2577945485
O         -0.0101932526       -0.5586707597        -0.0707216861
C         -2.2540936795       -1.1546464347        -0.6945645503
H         -2.3129573965       1.5375105139        -1.3140905061
H         -0.6978019437       1.9219402653        -0.6805224044
H         1.0087472585       -1.4025635539        -1.6336747808
H         -0.7754559258       -0.2169662258        -1.9627650732
H         4.0908111351       0.4927864206        0.0941375862
H         3.4701440786       1.4554739537        1.4363619374
H         -3.5244558732       0.6934812685        1.9337087042
H         -3.9668621675       0.8212345673        0.2203526006
H         1.8036555969       -0.2961140431        1.9611077181
H         3.3926415413       -1.0451485786        1.9124940635
H         2.5380314492       2.2036012589        -0.7732100888
H         1.2816137691       1.6517261911        0.3428416347
H         3.0158948369       -1.8166402021        -0.3969935393
H         1.6728428279       -2.3744662514        0.5987819187
H         -3.741328581       -1.5570622726        0.8330543096
H         -2.1218479349       -1.2701860662        1.4613698321
H         -1.9043048673       -2.1766214579        -0.8400857555
H         -3.0215231998       -0.9533460985        -1.4455421155

