31 
 
C         -1.9032683517       -0.3564110263        1.4885503059
C         0.9062944206       0.1238260563        -0.8197537156
C         -0.9284259814       0.5006203462        0.7025530907
C         3.4992835109       -0.0483492418        0.4186225796
C         -3.4478036546       -0.4404287607        -0.2914609871
O         -2.6734558567       -1.1960243983        0.63935595
C         2.830512465       -1.3237684397        -0.0889822982
C         2.4419312032       0.9741703169        0.7906169174
C         1.8705843943       -0.9769524        -1.225059316
C         -2.562010054       0.4034660565        -1.1926369572
O         1.5801221029       1.2619109456        -0.3185189682
O         0.0252894697       -0.4095986147        0.1411366129
C         -1.6873032133       1.3182192456        -0.3386644504
H         -2.5648809744       0.2971484496        2.066463984
H         -1.3659837926       -1.011607903        2.1719453431
H         0.3508793684       0.4867648136        -1.6843955138
H         -0.4146062918       1.1677991916        1.3995346991
H         4.1405672541       0.3699601987        -0.3610151748
H         4.1223146833       -0.24905816        1.2906455239
H         -4.0271765073       -1.1632695805        -0.8619780148
H         -4.1400199915       0.2033657307        0.263722849
H         2.2824325258       -1.7967420132        0.7284771566
H         3.5748612044       -2.0394721712        -0.4362553824
H         2.8840893935       1.9279250533        1.0697533847
H         1.8423127035       0.612802643        1.6308325534
H         2.4337456708       -0.6125285125        -2.0860224196
H         1.2942398782       -1.8438770238        -1.5468667511
H         -3.1887183554       0.986525763        -1.8675550253
H         -1.9393729182       -0.2548252643        -1.8026534327
H         -1.0103122438       1.9171519338        -0.9452415498
H         -2.321081062       2.0172627653        0.2119690068

