31 
 
C         -1.6745695175       0.0522587045        -1.3250012492
C         1.12087994       -0.701341707        -0.836055502
C         -1.225414763       -1.1323828494        -0.4804596923
C         2.8820748101       1.0367587831        0.6435229135
C         -2.7209954176       1.1214080092        0.4909399742
O         -1.767585174       1.2468086762        -0.5640017174
C         2.8361839925       -0.4515125784        0.9822543618
C         1.5545896426       1.4676048604        0.0473449528
C         2.4184629367       -1.2409913517        -0.2570716928
C         -2.3336694153       0.0120181733        1.452808574
O         1.2226616522       0.6855775693        -1.1059181531
O         0.0837013328       -0.9704960558        0.0760413648
C         -2.1755039794       -1.3065579769        0.6960980756
H         -2.6543095446       -0.1952041064        -1.7498186135
H         -0.9849009148       0.2482217986        -2.1415032719
H         0.8952937252       -1.1628061625        -1.7994963345
H         -1.22641592       -2.0215485573        -1.1180988794
H         3.6775880769       1.2265408352        -0.0812425586
H         3.0877945094       1.6381341202        1.5295360242
H         -2.7541759574       2.0883199641        0.9887171772
H         -3.7061905076       0.9183074405        0.0550455238
H         2.1175091922       -0.6195567588        1.7875337107
H         3.8060186973       -0.7989882261        1.3366625519
H         1.5830248419       2.4987551732        -0.298096435
H         0.7557949279       1.3750158932        0.7883412469
H         3.1851465158       -1.1469244364        -1.0283422885
H         2.2910005195       -2.3004402287        -0.0379803185
H         -3.09902465       -0.0781530577        2.223864699
H         -1.397098034       0.2786851823        1.9461162271
H         -1.80800366       -2.0970195033        1.3501524965
H         -3.1439838581       -1.6234196269        0.3038028325

