31 
 
C         -1.6759285111       0.428376554        -1.2544941313
C         1.1615872802       -0.6096032245        -0.8893700849
C         -1.2166861654       -0.9148399133        -0.7074545899
C         2.9880978135       0.8905788917        0.7631491375
C         -2.8598705018       0.959250646        0.7072273173
O         -1.8573246384       1.382084584        -0.2178553743
C         2.7949715483       -0.6020015199        1.0207313432
C         1.7348000796       1.4671675832        0.1310939628
C         2.3756602082       -1.2886107129        -0.277607845
C         -2.4760348608       -0.3480447714        1.3792202928
O         1.3920782946       0.7766553104        -1.0768922629
O         0.0525855067       -0.8329206956        -0.0523879541
C         -2.2132044803       -1.4230019586        0.3237881477
H         -2.6205992115       0.2757099249        -1.7890298337
H         -0.9475678494       0.8442195308        -1.9453671556
H         0.951730438       -0.9976214701        -1.8875717147
H         -1.1364829998       -1.6177325869        -1.5417466487
H         3.8320615658       1.0427996623        0.0858474681
H         3.2010992009       1.4279980607        1.6876726434
H         -2.9656289933       1.7640368799        1.431685094
H         -3.8086497888       0.8447964897        0.1701942372
H         2.0228160456       -0.7436015117        1.7804140809
H         3.7106699022       -1.0521357155        1.4024867492
H         1.870519848       2.5073807045        -0.1566572431
H         0.8954472566       1.4103183595        0.8295128347
H         3.1869653478       -1.2250488088        -1.0051962013
H         2.1460154622       -2.3421161428        -0.1225776781
H         -3.2786693031       -0.6551136587        2.0499234232
H         -1.5823359392       -0.1878157788        1.9852143445
H         -1.8386106918       -2.3410364694        0.7753298358
H         -3.1435228633       -1.6612092428        -0.1958941946

