31 
 
C         -2.1111830846       -1.3026960903        0.6024392385
C         0.6787790719       -0.3644878626        -0.4489481651
C         -1.1296245348       -0.3060768896        1.2062893549
C         3.3981371951       0.5252260424        -0.0721849904
C         -3.0683805383       0.2594885632        -0.8697631188
O         -2.4586510158       -1.0242154121        -0.7476473736
C         3.0562909011       -0.9495218614        0.1275000196
C         2.1732116719       1.3791252466        0.1999418292
C         1.8402578546       -1.3057143893        -0.7254307215
C         -2.0935322006       1.3588817995        -0.4885910096
O         1.0674990092       0.9874164647        -0.6210545726
O         0.2305340399       -0.6039765346        0.8659047887
C         -1.5760635292       1.1336950868        0.9338069427
H         -3.020778467       -1.2973826145        1.2141295696
H         -1.6832377096       -2.3037214918        0.6189370262
H         -0.1286003502       -0.5216500917        -1.1605837771
H         -1.1466293784       -0.4700740036        2.2836651061
H         3.7266960795       0.6916955564        -1.1010481482
H         4.2056351351       0.8382838686        0.5903427653
H         -3.3879924658       0.3505712547        -1.9057626045
H         -3.9554792282       0.2926145253        -0.2261644801
H         2.8374828097       -1.1339586514        1.1815126166
H         3.9005264186       -1.582965635        -0.1427702057
H         2.3538183492       2.4258597947        -0.0351714968
H         1.8858688071       1.3091977077        1.2524388862
H         2.0936841685       -1.209536051        -1.782924824
H         1.5094304161       -2.3291705077        -0.5520938703
H         -2.6007872414       2.3222860626        -0.5502313377
H         -1.2749869079       1.3761628953        -1.2074086611
H         -0.7668485592       1.8202191997        1.1809593624
H         -2.3956107165       1.3336070184        1.6284998509

