31 
 
C         -2.0405840187       -1.3694677075        0.4263666385
C         0.6952697536       -0.3968540597        -0.417185562
C         -1.1557994884       -0.3868107931        1.1860134956
C         3.3965355949       0.5728599951        -0.1090865321
C         -3.0741880794       0.3065755393        -0.8637650236
O         -2.4042569645       -0.9520340383        -0.8830599637
C         3.0828667161       -0.8881727498        0.2041439233
C         2.1554347807       1.4205853759        0.1005321064
C         1.8767917692       -1.3314338082        -0.6210914351
C         -2.1483918261       1.3950388758        -0.3537100048
O         1.0559968498       0.948450818        -0.6868878034
O         0.2427099372       -0.5362431059        0.9107097417
C         -1.6684586494       1.050137647        1.0572569297
H         -2.9520333142       -1.5195657199        1.0157253275
H         -1.5299740296       -2.3260390679        0.3223528821
H         -0.1064249921       -0.6201006448        -1.1171470165
H         -1.2180977136       -0.6752838291        2.23523857
H         3.7212356995       0.6660792401        -1.1483786171
H         4.1980632299       0.9515630441        0.525881986
H         -3.393856278       0.4984511981        -1.8858592718
H         -3.9638558034       0.2276905049        -0.2275137001
H         2.8635677791       -0.993998237        1.2689421636
H         3.9397269923       -1.5245973931        -0.0143278636
H         2.3156013363       2.4504029549        -0.211465015
H         1.8704404035       1.4228010676        1.1558997945
H         2.1317315459       -1.310322538        -1.682471899
H         1.5648902639       -2.3451605094        -0.371432421
H         -2.6796090872       2.3472821742        -0.3468152805
H         -1.3075761587       1.4915626234        -1.0406089656
H         -0.8938098055       1.7370735403        1.3986692262
H         -2.5156164428       1.1469776033        1.74048159

