31 
 
C         -2.1691219504       -1.2120573134        0.7665970908
C         0.6794738306       -0.3585906847        -0.5141617414
C         -1.0927932624       -0.2293071225        1.2038378324
C         3.3941180067       0.4825711802        -0.0175106399
C         -3.082195317       0.2181178592        -0.8561016821
O         -2.5191673599       -1.0685405981        -0.6039003206
C         3.0358938699       -0.9980842693        0.0904131809
C         2.1683137398       1.3326961854        0.2632780386
C         1.8384538997       -1.2980312093        -0.8096597715
C         -2.0700538322       1.3202996078        -0.595437185
O         1.0868878028       0.9932315143        -0.610951343
O         0.2021513275       -0.6753263584        0.7731038954
C         -1.5022195923       1.1955522418        0.8199401945
H         -3.0598707782       -1.0582436677        1.3868263647
H         -1.8191405016       -2.234120396        0.8989500038
H         -0.1104284106       -0.4723613379        -1.2536234828
H         -1.0271034513       -0.2859368312        2.2904907835
H         3.7545637598       0.7023066014        -1.0254851042
H         4.1840364323       0.7509993997        0.6845955065
H         -3.4083496552       0.2140716125        -1.8940139596
H         -3.9613423869       0.3483247507        -0.2143693919
H         2.7907364988       -1.2393220254        1.1268365405
H         3.8822375102       -1.6221645717        -0.1947651283
H         2.3638628348       2.3885697256        0.0887076659
H         1.8469145676       1.2108525395        1.3012899825
H         2.118256632       -1.1495291428        -1.8542650066
H         1.4956306552       -2.3259589306        -0.6976687391
H         -2.563382891       2.2862097156        -0.7099380847
H         -1.2810532945       1.2724480627        -1.3445175326
H         -0.6746558494       1.8833708064        0.9830446126
H         -2.2918018345       1.4672096562        1.5254254203

