31 
 
C         -2.0765456397       -1.3504733579        0.0886485729
C         0.7621280655       -0.8405478393        -0.4408027019
C         -1.1617309514       -0.6943782505        1.1124460448
C         3.0784794816       0.8617020574        -0.1821540855
C         -2.8444118716       0.6795185523        -0.8150446863
O         -2.2397642798       -0.5825190188        -1.0964243055
C         3.1257715329       -0.5575569551        0.3797679159
C         1.6452999951       1.3612337886        -0.1944455138
C         2.158052632       -1.4449372195        -0.4007574521
C         -1.9381353763       1.534636932        0.0518154529
O         0.7938210053       0.4811599705        -0.9355223949
O         0.2356243443       -0.9264775746        0.8630951752
C         -1.5540130977       0.7734744777        1.3205949584
H         -3.0552765745       -1.499846827        0.5573745397
H         -1.6857874042       -2.3221264603        -0.2098913625
H         0.1271211905       -1.3820672102        -1.140507907
H         -1.321370628       -1.2155244089        2.0559990731
H         3.4664524817       0.8679359451        -1.2036921624
H         3.6895851041       1.5428740764        0.4107344677
H         -3.0367824141       1.1487577862        -1.7777001041
H         -3.8038449772       0.5058170789        -0.3135915064
H         2.8458651691       -0.540904692        1.4352762434
H         4.1349045138       -0.963997212        0.3197275429
H         1.5608070698       2.3294979485        -0.6837215743
H         1.2676493775       1.4584297374        0.8266718286
H         2.4993726041       -1.5383180884        -1.4333470209
H         2.0965915455       -2.4465483973        0.0228176805
H         -2.4657617172       2.4508147173        0.3200065094
H         -1.0558548674       1.8138484932        -0.5186373124
H         -0.7612890401       1.2831890245        1.8682924055
H         -2.4268942733       0.7527679257        1.9786816792

