31 
 
C         -1.9594412929       -1.2233696472        -0.6530894087
C         0.8758070917       -0.6861667104        -0.5584070761
C         -1.2443293552       -1.1248021378        0.6836038198
C         3.1124677641       1.0206660402        0.0963500116
C         -2.7688761257       0.9823376954        -0.5428887814
O         -2.0541768877       0.0227289658        -1.3228865279
C         3.0911400484       -0.4160805521        0.6116702921
C         1.6903291775       1.5111363147        -0.1025777467
C         2.2608805781       -1.2763845197        -0.337526488
C         -2.09086436       1.2254627015        0.7947585818
O         0.9586870716       0.6616025518        -0.9940057583
O         0.1516151408       -0.771429311        0.6447164078
C         -1.9457079496       -0.0905972449        1.5567048725
H         -2.9633724001       -1.6071397798        -0.4379476622
H         -1.4806924233       -1.9220273808        -1.3344601036
H         0.3685357634       -1.2067693785        -1.3645797432
H         -1.3067700133       -2.1107081723        1.1492193283
H         3.6437352202       1.0641682019        -0.8576006522
H         3.6234079942       1.6851827116        0.7937767274
H         -2.8086923315       1.8900180519        -1.1413318438
H         -3.7916958777       0.6192052488        -0.3887863792
H         2.6534747452       -0.4379635523        1.6122538033
H         4.1014408728       -0.8159682245        0.691632314
H         1.6644927708       2.4999420732        -0.5555899761
H         1.1721356662       1.5610627431        0.8589514424
H         2.7538388145       -1.3260918314        -1.310493495
H         2.1476125103       -2.2948388644        0.0325849489
H         -2.6784442294       1.942240677        1.3686250889
H         -1.1080617955       1.6674623331        0.6200570479
H         -1.3849109216       0.044139837        2.4814059997
H         -2.9330642663       -0.47670784        1.8196579559

