31 
 
C         -2.1082478258       -0.9551464182        1.1318129738
C         0.7725776228       -0.0120465492        -0.5521055548
C         -1.0732305157       0.1548513825        1.0946595647
C         3.5868872086       0.1142431046        0.0784379195
C         -3.3290775803       -0.159833132        -0.6974940858
O         -2.6049760128       -1.2670505001        -0.161642222
C         2.9082596261       -1.2471933676        -0.0527211688
C         2.5692459346       1.158215458        0.4993016321
C         1.7104847646       -1.1251693517        -0.9923128777
C         -2.4067604228       1.0206594939        -0.9397869831
O         1.4677804001       1.2180527386        -0.4146995195
O         0.1804981593       -0.4028179536        0.659285349
C         -1.6150603138       1.3665541472        0.3280802011
H         -2.9386005609       -0.6490993451        1.7778406617
H         -1.6647394766       -1.8640887176        1.5336287306
H         0.0217461806       0.1773812702        -1.3122499893
H         -0.8935250139       0.4661868088        2.1252404784
H         4.019257153       0.4054756464        -0.8820134356
H         4.3930772487       0.0861683686        0.812118177
H         -3.7839093841       -0.5040901618        -1.6238473467
H         -4.1263583975       0.110343468        0.0039596816
H         2.5758556484       -1.5854617749        0.9310674945
H         3.6058061544       -1.9929719433        -0.4325329351
H         2.9984721279       2.1577669106        0.5036227984
H         2.1941084443       0.9418604475        1.5032623179
H         2.0575634902       -0.8790038745        -1.9975960717
H         1.144938106       -2.0544233677        -1.0514402214
H         -3.0032683373       1.8820418244        -1.2423501634
H         -1.7489302948       0.7832796241        -1.7748806601
H         -0.8143152112       2.0711758525        0.113855098
H         -2.2957109222       1.8609489115        1.0245371565

