31 
 
C         -2.1358452024       1.075762813        -0.9912105643
O         -1.5609316375       -0.1903400983        -1.3210568607
C         -3.1518236512       0.0830527443        1.058792919
O         3.0883564391       -0.8438282395        -0.732508204
C         -1.2558932669       -0.9788869564        -0.1950577069
C         -2.4784159288       -1.2326657979        0.6705628514
C         2.9806279265       1.385081724        0.2292105354
O         -0.2834434019       -0.3675856462        0.6249466278
C         1.6028492684       1.0714212784        0.8119316722
C         3.7829067158       0.1036130603        0.0688552023
C         0.9270160952       -0.0015588337        -0.0232790516
C         1.8503865217       -1.2113934264        -0.1524148851
C         -3.4209358034       0.9095237751        -0.1981617466
H         -1.4114991758       1.6654514701        -0.4210046618
H         -2.3112918593       1.5731315705        -1.9423157829
H         -2.4980536964       0.6437711568        1.7293358797
H         -4.077914935       -0.1148036829        1.5973019199
H         -0.8678072049       -1.9099143073        -0.6132167071
H         -3.169584258       -1.8470677949        0.0910462488
H         -2.1764515585       -1.8042431418        1.547304763
H         3.5232984154       2.0770240658        0.8733154815
H         2.8726553689       1.8592579767        -0.7485618392
H         1.7084784888       0.6954339845        1.8336212196
H         0.9747434008       1.9617035754        0.8499322929
H         4.7316773315       0.2877697407        -0.4304269669
H         3.9868804355       -0.3381815968        1.0519392068
H         0.7123609156       0.3902680121        -1.0207016671
H         1.4182437125       -1.9757653902        -0.7955311992
H         2.0099999021       -1.6407358245        0.8448853529
H         -3.8187058087       1.8928450801        0.0542628738
H         -4.1599875493       0.4026787089        -0.8233292034

