31 
 
C         -2.9167245604       0.7528448552        1.036472034
O         -2.104416788       1.4261847976        0.0702327123
C         -2.792446735       -1.3394194084        -0.3058990232
O         3.0545425708       -1.358160537        0.2019550028
C          -1.2081435818       0.5865439003        -0.6001403968
C         -1.9137191101       -0.5729063651        -1.2916033891
C         3.3056197412       0.9521226662        -0.5073100673
O         -0.2590040346       0.100280015        0.3359876591
C         1.8536570229       1.2347679141        -0.1194896969
C         3.8537582274       -0.1888009441        0.3348309452
C         1.048495973       -0.0560994856        -0.1914710306
C         1.7260273636       -1.1400559705        0.6346634827
C         -3.7291870109       -0.3619890637        0.401106016
H         -2.2773995368       0.3536390669        1.8279129851
H         -3.5552570906       1.5221868234        1.464128108
H         -2.1608960694       -1.8365484665        0.4334996161
H         -3.3560353455       -2.1132708279        -0.8256133593
H         -0.7049258688       1.2254391579        -1.3281970229
H         -2.5256578345       -0.1618819898        -2.0972779268
H         -1.1634385746       -1.221526249        -1.7454251377
H         3.9223462267       1.8396624169        -0.3658529683
H         3.3645566222       0.6740044501        -1.5617625645
H         1.8085238511       1.6013580086        0.9096226729
H         1.4176561626       1.9997900452        -0.7624594657
H         4.8570722919       -0.4691797038        0.0218214441
H         3.8879584614       0.10564415        1.3908415673
H         0.9982177253       -0.4035978846        -1.2299720539
H         1.1915979358       -2.0825579775        0.5305193887
H         1.7132005664       -0.8424947952        1.6909515335
H         -4.3156372928       -0.8629763786        1.1717869941
H         -4.4271353086       0.0703807797        -0.3198920589

