31 
 
C         -1.8313542284       -1.4169371072        -0.5718840377
O         -1.5399773022       -1.1177102161        0.7986771796
C         -2.655700768       0.9169854339        -0.8816266965
O         2.4821802447       -1.3274233694        -0.2754741584
C         -1.4628444234       0.2157541552        1.2219939519
C         -2.5506659793       1.0993770882        0.6274742046
C         2.962033516       0.957771494        -0.9281129798
O         -0.1900694263       0.8381870392        1.0320914633
C         1.8084241727       1.447874324        -0.0553753858
C         3.5074766586       -0.3492965695        -0.3774983345
C         0.7674069955       0.3494643009        0.1085246787
C         1.4482057863       -0.9260299124        0.6062378415
C         -2.934688359       -0.5563635942        -1.1606063559
H         -0.9225007094       -1.3262019351        -1.170246866
H         -2.1164277677       -2.4669402577        -0.569185959
H         -1.724612337       1.2250405593        -1.3649813319
H         -3.4492733332       1.544145914        -1.2854018226
H         -1.579402704       0.1631901607        2.3038187356
H         -3.5005858082       0.8227805246        1.0908499002
H         -2.3327820385       2.1294819576        0.9037703404
H         3.7581315044       1.7015195299        -0.9659650005
H         2.6148095171       0.7931215446        -1.9503526671
H         2.1803181969       1.712169607        0.9385679912
H         1.3385752964       2.3353481488        -0.4792911284
H         4.2691241208       -0.7707982334        -1.0301281608
H         3.9495382577       -0.185425649        0.6130424676
H         0.3149490128       0.1577048209        -0.8669089475
H         0.7453778617       -1.7513572404        0.6661493045
H         1.8543472002       -0.732574134        1.6078676609
 H         -2.9998021701       -0.7615298028        -2.2291190531
H         -3.8916369872       -0.8316745815        -0.7116788344

