31 
 
C         -2.7775178115       0.9125806839        1.0087607876
O         -1.9570108416       1.4046186964        -0.053844258
C         -2.9671428183       -1.2860254585        -0.1441455362
O         3.16824293       -1.2887366494        0.2333583353
C         -1.1976566919       0.4097138532        -0.686909328
C         -2.0696794037       -0.7101205284        -1.2371458235
C         3.2503428739       1.0275704561        -0.4937135326
O         -0.258587572       -0.120858458        0.2321965501
C         1.7666588895       1.1889855714        -0.1608865141
C         3.8617089777       -0.0554719984        0.3805965277
C         1.0758273979       -0.1657733635        -0.2463440109
C         1.8118809373       -1.1792020993        0.6183516711
C         -3.7453757832       -0.150720991        0.5184436007
H         -2.1387867939       0.5089874238        1.7988076071
H         -3.3003468688       1.7825136143        1.39927621
H         -2.3520845472       -1.789911638        0.6044891644
H         -3.643553781       -2.0297550229        -0.5636046448
H         -0.6713603409       0.9215719656        -1.4932996237
H         -2.6815416412       -0.2970648673        -2.0418572113
H         -1.4211816496       -1.4731886395        -1.6690532214
H         3.7840760001       1.9655961149        -0.3411611337
H         3.3704640904       0.7462139644        -1.5420827069
H         1.6524067629       1.5587980843        0.861868411
H         1.2918371507       1.9097781267        -0.8272503517
H         4.8955795855       -0.2533195964        0.1063811329
H         3.8329322519       0.2499864892        1.4336377076
H         1.089865077       -0.5273193139        -1.2815846692
H         1.3633070289       -2.1647474325        0.5101899758
H         1.7379941034       -0.8711386666        1.6690394034
H         -4.3362643341       -0.5141106847        1.3596883691
H         -4.4334261779       0.2973903638        -0.2024978875

