31 
 
C         -2.997638999       0.7882559349        0.8872252907
O         -2.3280159149       1.4185702822        -0.2098110768
C         -2.45130406       -1.4504264076        -0.0588077917
O         2.7633839405       -1.4321263076        -0.0669154744
C         -1.283482382       0.6623124417        -0.7467966095
C         -1.7468900898       -0.7175645462        -1.1977362279
C         3.4320754688       0.8962271722        -0.2598448128
O         -0.2660758591       0.5743358552        0.2388526592
C         2.016817506       1.3410931891        0.1097619065
C         3.7239628422       -0.4674703277        0.3457768804
C         1.0235223109       0.2510775107        -0.2601164155
C         1.4569034235       -1.0791827021        0.3455718244
C         -3.5660606276       -0.5638683308        0.4933336219
H         -2.2980578338       0.6786218685        1.7193553113
H         -3.7810544926       1.4817198092        1.1835991202
H         -1.7331583999       -1.6680061354        0.7352997072
H         -2.8474527572       -2.4025474821        -0.4094992327
H         -0.9080328986       1.2429182494        -1.593050998
H         -2.4339789571       -0.5789367817        -2.035094391
H         -0.8904450243       -1.280468643        -1.5712486616
H         4.1682233957       1.618080031        0.0940080542
H         3.5312247325       0.8290783426        -1.3454127306
H         1.9488348238       1.5080636018        1.1883240466
H         1.7481796979       2.2734414361        -0.387405551
H         4.6922946544       -0.8460196309        0.025904204
H         3.7200229713       -0.4018030935        1.4406723961
H         0.9941063798       0.1426527026        -1.3495209533
H         0.790409049       -1.8806991959        0.0301275323
H         1.4115138911       -0.9978837914        1.4392075233
H         -4.0404800252       -1.0197743072        1.3627384662
H         -4.3357447663       -0.420615744        -0.2688086177

