31 
 
C         -1.9511615786       -0.1394926696        -1.4854399786
O         -1.3980931189       -1.1268327663        -0.6058613979
C         -3.1457345018       0.9416862226        0.3964290005
O         2.8490053738       -1.0967988906        -0.5362040463
C         -1.3064194628       -0.7480852187        0.7404523068
C         -2.5809745533       -0.1447569934        1.3048022028
C         3.0098143399       1.323679589        -0.3894869195
O         -0.2354825216       0.1550966681        0.9985770404
C         1.7236571986       1.3665940399        0.4355684453
C         3.7072413382       -0.01433612        -0.2001873978
C         0.870855865       0.1531242783        0.1102058847
C         1.6945110803       -1.1210571131        0.2836280675
C         -3.2985248635       0.3698284386        -1.0099377443
H         -1.261826224       0.7052880254        -1.574385028
H         -2.0191111822       -0.6277236437        -2.4547969684
H         -2.4654573639       1.7961404782        0.3700909086
H         -4.1000048247       1.2961676428        0.7836064869
H         -1.0813729326       -1.6857862429        1.2554649985
H         -3.3094068309       -0.9520606987        1.402742979
H         -2.3646040348       0.2295242212        2.3045047462
H         3.6822584012       2.130137423        -0.0968263189
H         2.7785757657       1.4546924658        -1.4487468322
H         1.9654483501       1.3428145427        1.5017433294
H         1.158591886       2.2789625427        0.2436580986
H         4.5783475049       -0.1035991246        -0.8457273806
H         4.0333609484       -0.1240016175        0.8414568486
H         0.5459511664       0.2064138611        -0.9286275607
H         1.1165012367       -1.9964867618        -0.0078178019
H         1.9801446764       -1.2185356653        1.3391824845
H         -3.656951164       1.1236962783        -1.7111144736
H         -4.0195839741       -0.4508231915        -1.0037589795

