31 
 
C         1.1933502462       0.4471714935        0.2244517258
C         -3.8522921404       -0.5400789205        -0.4374808263
C         -1.1728661411       0.3023420228        0.5074170023
C         -2.4895870278       -1.0869409818        -0.8739203976
C         -3.6500601666       0.5925925851        0.5826504865
C         1.5297124659       -1.037580803        0.2855840653
C         2.17363135       1.1663115631        -0.691904693
C         3.8791099018       -0.3930177324        -0.2772656961
O         3.5078067384       0.980106072        -0.2629174241
 C         3.0028235784       -1.2073683463        0.6598973828
O         -0.0986303254       0.7177612001        -0.299038346
C         -2.3207300842       1.2888989782        0.3087220902
O         -1.5623677742       -1.020410093        0.2057304618
H         1.2732459327       0.88120626        1.2283752141
H         -4.4580963178       -1.33488984        -0.004307251
H         -4.3801834525       -0.1706112362        -1.3177017142
H         -0.8549303144       0.2718180023        1.552341942
H         -2.5479027833       -2.1323862174        -1.1655980732
H         -2.0949322319       -0.5247194361        -1.7235571242
H         -3.6324701195       0.1815899854        1.5931609847
H         -4.47374013       1.3026462389        0.5415316703
H         0.881375084       -1.5481822518        0.9966198009
H         1.3398350994       -1.4713715395        -0.7003115772
H         1.9790448094       2.2369520177        -0.6883045072
H          2.0465615405       0.7882578008        -1.7142113802
H         3.7960173115       -0.777435595        -1.3012012361
H         4.9245613381       -0.4287752204        0.0211452745
H         3.2926013093       -2.2571301195        0.6121626089
H         3.1697096925       -0.8661407347        1.6839708381
H          -2.2916219207       1.6527160876        -0.720522964
H         -2.1630654684       2.1466227603        0.960061662

