31 
 
C         0.9201812162       -0.0868224577        -0.2870762796
C         -3.4819643226       0.4277240158        0.8899923405
C         -1.3654650136       -0.1745706617        -1.0278563632
C         -2.183070111       1.2136204629        0.7696199572
C         -3.3270192368       -0.9784705004        0.2691535613
C         1.7513808796       -1.3379166536        -0.0511541355
C         1.821321337       1.0781434794        -0.6767792484
C         3.6617461836       0.1832253724        0.4758245058
O         2.8143564852       1.3123485988        0.3041489352
C         2.8744361526       -1.0320056072        0.9400055389
O         -0.0018171867       -0.2958865335        -1.3504639892
C         -1.866374436       -1.258241667        -0.085787246
O         -1.642182912       1.1280348261        -0.5475627573
H         0.396324534       0.1868779603        0.6310213775
H         -4.2787374111       0.9754622514        0.3884058697
H         -3.7484539247       0.3646597029        1.9450322401
H         -1.8696902097       -0.2719183495        -1.991001868
H         -2.3445394074       2.2735989556        0.9506536523
H         -1.4527912721       0.8626818145        1.5026814378
H         -3.9211952155       -1.0459860475        -0.6431442491
H         -3.7002014207       -1.7461087208        0.9438173442
H         1.1155916124       -2.149509924        0.3042744681
H         2.1763137659       -1.6474620131        -1.0101791833
H         1.234313271       1.9895901433        -0.7710692544
H         2.2885467287       0.8561226071        -1.6447893687
H         4.1664852574       -0.0356440831        -0.4732421875
H         4.4128243839       0.4739761125        1.2070937469
H         3.5450976033       -1.8856194642        1.0392280054
H         2.4552494461       -0.825178156        1.9271763272
H         -1.2514044785       -1.2952620651        0.8150737178
H         -1.7586422985       -2.2165973986        -0.5912808953

