31 
 
C         1.1778976399       0.2096265999        0.0806048762
C         -4.0706308198       -0.0087315375        -0.1795301274
C         -1.162990625       -0.1834460188        0.3318919506
C         -3.0158759147       -0.7180080174        -1.0334674786
C         -3.3889170499       0.7153353776        0.9943886321
C         1.8188477527       -1.1436599002        0.3602326109
C         2.0574635777       1.0135580493        -0.8662823302
C         4.0143707535       -0.0665839558        -0.1402428421
O         3.3587114577       1.1801755183        -0.338145344
C         3.2539837117       -0.9381175532        0.8462963684
O         -0.087515384       0.0854288168        -0.5502684416
C         -1.9646123282       1.0898327625        0.5943685668
O         -1.9561193937       -1.2046264417        -0.2118025101
H         1.0781545816       0.7748584165        1.0147583061
H         -4.8000732134       -0.7273023088        0.1916571454
H         -4.6058914758       0.7036780699        -0.8086619811
H         -0.7695139232       -0.5887718849        1.2665013824
H         -3.426555089       -1.5847824625        -1.5443614913
H         -2.6073695204       -0.0459889312        -1.7913848298
H         -3.349979839       0.0568470577        1.863657153
H         -3.9551240112       1.5970676668        1.2877534302
H         1.2351612084       -1.7066873943        1.0890673895
H         1.8199001329       -1.7127350297        -0.5735598746
H         1.6398078255       2.0067577629        -1.0186724093
H         2.1023698747       0.4975711808        -1.8338210739
H         4.1065536611       -0.5818860114        -1.1041296038
H         5.0125082488       0.1689412215        0.2224237606
H         3.764280721       -1.8947829146        0.9580195415
H         3.252064466       -0.4490486843        1.8227898878
H         -1.9733322786       1.6927296872        -0.3155869964
H         -1.4599137471       1.6713338586        1.364795333

