31 
 
C         0.9893832914       0.1734880187        -0.0385715598
C         -3.616378459       0.0114458909        0.9007981693
C         -1.3091168109       -0.1189655571        -0.9511121152
C         -2.7841495689       1.1760468972        0.3541884845
C         -3.064706759       -1.3073687055        0.3383064235
C         1.7317340813       -1.0609396744        -0.5366441811
C         1.9430507087       1.3634242132        -0.0116827485
C         3.8262784884       0.0008219867        0.3167513397
O         3.0673172817       1.1003025532        0.8043389869
C         2.9966424804       -1.2721964778        0.2969420991
O         -0.0664054235       0.5676728004        -0.897477823
C         -1.5563932211       -1.1710944589        0.1358943075
O         -2.3195767918       0.8605763336        -0.9542571615
H         0.6377776188       0.0130501723        0.9826272603
H         -4.6636845038       0.1314321955        0.6273011057
H         -3.5593393119       0.0138425745        1.9901335279
H         -1.3775652159       -0.5866731653        -1.9345772375
H         -3.3684832581       2.0878758822        0.2646813547
H         -1.9283755313       1.3902152672        1.0003441202
H         -3.5360884404       -1.5309569613        -0.6196050856
H         -3.2849537407       -2.1369783451        1.0070912168
H         1.0927640543       -1.9423419737        -0.4996195362
H         1.9999624118       -0.8904000451        -1.5832376938
H         1.4412536259       2.2372817707        0.3992065297
H         2.261615245       1.588374215        -1.0371481307
H         4.1861680313       0.2318447822        -0.693294144
H         4.6857781565       -0.0931726168        0.9768381689
H         3.5916784429       -2.0908983906        -0.1078315544
H         2.728257047       -1.5355375195        1.3223766552
H         -1.1062808361       -0.8799020884        1.0839009255
H         -1.1063210932       -2.1142325742        -0.1650397037

