31 
 
C         0.9706280343       -0.2886809321        0.0279058441
C         -3.4762264543       0.788266529        0.7808440573
C         -1.3214577762       -0.4045927489        -0.8457167874
C         -1.9853077487       1.1163873654        0.8538873209
C         -3.7028578148       -0.4114670944        -0.1579076545
C         1.9685538799       -1.2785892202        0.6051717365
C         1.6690378172       0.6100298791        -0.989384924
C         3.7498419611       0.3935843898        0.0755532859
O         2.7619215414       1.2958345419        -0.4044255529
C         3.1842987624       -0.5261855591        1.1462306715
O         -0.0626895031       -1.0316367611        -0.5984599719
C         -2.4302820803       -1.2507251273        -0.2341770053
O         -1.3680196962       0.9314267721        -0.4210384035
H         0.5763909049       0.3357027239        0.8318703242
H         -4.0333817114       1.6549610386        0.4282737987
H         -3.8289996725       0.5618351483        1.7876290403
H         -1.43911413       -0.3615895437        -1.9309803089
H         -1.8099192595       2.1546018181        1.1237340853
H         -1.4886265385       0.4892693698        1.5978040874
H         -3.9464717639       -0.0550118023        -1.1602479832
H         -4.5444197878       -1.0136461421        0.1779317108
H         1.4920166623       -1.8750830332        1.383064037
H         2.2787530209       -1.9593526345        -0.1925159245
H         0.9822578307       1.3629948842        -1.3693551062
H         2.0159598879       -0.0119299171        -1.8249755049
H         4.1340828713       -0.199043173        -0.7639273418
H         4.5603251429       1.0059858136        0.4650930875
H         3.9555530807       -1.2244208711        1.4718571158
H         2.8964586481       0.0745805782        2.0116774995
H         -2.1233971333       -1.580024124        0.760309337
H         -2.5640569753       -2.1418631679        -0.8447495705

