31 
 
C         0.9302626692       0.0579415129        -0.2847733801
C         -3.4784045978       0.1997117098        0.9905383436
C         -1.3642834681       -0.0440444679        -1.037957491
C         -2.3072411313       1.1633750762        0.8236324595
C         -3.2178414158       -1.1035792861        0.207665866
C         1.6652145108       -1.2709858636        -0.187775582
C         1.9231144652       1.1806392582        -0.5609934674
C         3.6864156553       0.0347728228        0.4847062138
O         2.9286698214       1.2372053617        0.4322998085
 C         2.8055211936       -1.1566194376        0.8245721914
O         -0.0007001636       0.0604484369        -1.3606461588
C         -1.7368557977       -1.2232137326        -0.1509717244
O         -1.8428232179       1.1876732707        -0.5248713691
H         0.4296052688       0.2825481494        0.6601309915
H         -4.3947310796       0.6723089704        0.6396357014
H         -3.6058907409       -0.0036324635        2.0541050212
H         -1.844858727       -0.1699180205        -2.0095767182
H         -2.5988391899       2.1852558952        1.0537038435
H         -1.4915358248       0.8960861483        1.4989281076
H         -3.7965531741       -1.1007904609        -0.7173759459
H         -3.5399168179       -1.971881184        0.7785557446
H         0.9774037944       -2.0724511986        0.0805019504
H         2.0694073691       -1.501713179        -1.1774445921
H         1.4117613332       2.1413509566        -0.5609504494
H         2.3731571986       1.0207334665        -1.5491368358
H         4.176915527       -0.1240143428        -0.4834936372
H         4.4542345989       0.1910337435        1.2392633272
H         3.4069809644       -2.0657074476        0.8309978623
H         2.4006513005       -1.0219601708        1.8300464551
H         -1.1310968609       -1.2445362677        0.7557075292
H         -1.5315344633       -2.1391402557        -0.7029540655

