31 
 
C         -3.2887808997       0.974532708        0.32474364
C         -1.1402333531       -0.9419974481        0.1833559719
C         1.0643439279       -0.4074051769        -0.7216788864
C         -3.2695726665       -0.0426310239        -0.814381259
O         3.0475920378       -0.9560350375        0.522137826
C         3.4749608885       0.3996664359        0.5694620304
C         -1.8676743715       1.2426648148        0.7892832621
C         1.4846170816       1.0549433198        -0.7733683447
C         1.6357729794       -1.0739781804        0.5306131971
C          3.0037140006       1.1631047041        -0.6568604559
O         -1.2111844059       0.041286644        1.1974382989
O         -0.3513208221       -0.5114406953        -0.8940729699
C         -2.5170421092       -1.2916256409        -0.3607363607
H         -3.8724690031       0.5835831445        1.1616792042
H         -3.7468496425       1.9125425709        0.009676946
H         1.5061165152       -0.9236530855        -1.5788106976
H         -4.2820009203       -0.305754899        -1.1186856738
H         -2.7708137502       0.3922780733        -1.6827952631
H         4.5605604533       0.3730842226        0.6327933576
H         3.0842513315       0.8693941136        1.4803142212
H         -1.2958901386       1.7136217119        -0.0149563484
H         -1.8442379978       1.8974484596        1.6575483358
H         1.0124562299       1.5785394133        0.0630563958
H         1.1204881853       1.5053204463        -1.6967835733
H         3.4785496865       0.7366265515        -1.5430765673
H         3.3146869914       2.2053299662        -0.5840214783
H         -3.070005423       -1.780455493        0.443524882
H         -2.4001908463       -2.010034173        -1.170847154
H         -0.6974156413       -1.8084784942        0.6721637795
H         1.2233810475       -0.6127485844        1.4343648572
H         1.4213446346       -2.1407253683        0.5452598266

