31 
 
C         -3.2026780025       -0.1018516305        1.0967623754
C         -1.2369959632       -0.336703811        -0.99386945
C         1.0576068384       0.4495036156        -0.658575631
C         -3.1816347439       0.9281246153        -0.0315351033
O         2.8745498624       -1.1026926294        -0.4312110102
C         3.4789705443       -0.3740933356        0.629632743
C         -1.8135264593       -0.6881657232        1.2843125498
C         1.6396727198       1.3057780028        0.4569479696
C         1.4604464678       -1.006453825        -0.3924171334
C         3.1531627705       1.1072084753        0.5314371286
O         -1.3197929565       -1.2572528423        0.0708497586
O         -0.3441249796       0.712717732        -0.7227980527
C         -2.5906471796       0.2925745788        -1.2891235604
H         -3.8977037607       -0.9077418466        0.8488100576
H         -3.5348228373       0.3457229792        2.0339463414
H         1.5018305876       0.7360580116        -1.6178026945
H         -4.1854762647       1.2990190083        -0.2356809252
H         -2.5725417139       1.7835379989        0.2667565094
H         4.5492585741       -0.553666913        0.5541337545
H         3.1253643851       -0.7753675954        1.587116346
H         -1.1202117425       0.08362666        1.6306866342
H         -1.8140362955       -1.4997467893        2.0084412199
H         1.1719493255       1.001325819        1.3971397557
H         1.3904836198       2.3535686371        0.2873225146
H         3.6236632693       1.5153100732        -0.3654329365
H         3.5700830091       1.6325558417        1.390758954
H         -3.2498985085       -0.5006855314        -1.6460589699
H         -2.4749733365       1.019487301        -2.0917746758
H         -0.8900690829       -0.9258401057        -1.8450010521
 H         1.0898087497       -1.3300508332        0.5842100684
H         1.0805241039       -1.6867279381        -1.1509084856

