31 
 
C         3.4202535153       0.2441775684        0.7402812388
C         1.0990972863       -0.426421081        -0.8216259348
C         -1.8685227514       1.5167239181        0.0159212159
C         2.503521987       -0.8862513601        1.2055429015
C          -3.3410748317       -0.3530024869        0.7551859228
O         -2.5379120226       -1.2781191338        0.0337283065
C         2.6274810401       1.238615175        -0.0916876402
C         -1.0967202297       0.4988936076        -0.8131688646
C         -2.5229383486       0.8408024466        1.2203507142
C         -1.9834512628       -0.6994825606        -1.1319924803
O         1.9903768495       0.6019300582        -1.1997341105
O         0.0417041904       0.0933551723        -0.0570371141
C         1.8038369479       -1.4996351649        -0.0064276057
H         4.2304075866       -0.1644134471        0.131320671
H         3.8708847256       0.7618681918        1.5876483596
H         -2.6404585635       1.9585232107        -0.6185091756
H         3.0679424582       -1.6489281554        1.7408615846
H         1.7563422303       -0.4891516102        1.8958786385
H         1.8711816178       1.7305601175        0.525699113
H         3.2703866136       2.0025444514        -0.5231921374
H         -1.7580650731       0.4978669026        1.9184181122
H         -3.1682190867       1.5411097648        1.7509678859
H         -2.7837608128       -0.3765060085        -1.8093961526
H         -1.4124841542       -1.484895746        -1.6253257833
H         2.5402108811       -1.98029723        -0.6533018482
H         1.0715083025       -2.2509782368        0.2877312142
H         0.7261616282       -0.8320690541        -1.7632961203
H         -4.1665062155       -0.0171403738        0.114463574
H         -3.7600441731       -0.9027283954        1.5953318647
H         -1.1952304433       2.3161212421        0.3237955419
H         -0.7656518916       0.9555792173        -1.7506258918

