31 
 
C         3.149916177       -0.3917885168        0.9548605283
C         1.1253847199       0.2589084346        -0.9937376774
C         -2.1515582634       1.4451253005        0.2079250271
C         1.955239138       -1.3245005973        0.769280064
C         -2.8928371258       -0.8875680499        0.7102196198
O         -1.95102447       -1.3921417212        -0.229687638
C         2.7586582572       1.019975261        0.5550011734
C         -1.2025640166       0.8525696132        -0.8256361081
C         -2.4250234385       0.426891329        1.3154573998
C         -1.7489619572       -0.4905786956        -1.29912337
O         2.2575826218       1.0650949988        -0.7827225701
O         0.0693243892       0.7545572215        -0.1974270493
C         1.4273721062       -1.1987376624        -0.6584345478
H         3.9794686864       -0.7245240485        0.3262625789
H         3.4964241375       -0.3904238288        1.9888152463
H         -3.0862321345       1.7050239295        -0.2938692633
H         2.2317304025       -2.3573910375        0.9782097466
H         1.163421019       -1.0504783989        1.4706825231
H         2.0003211126       1.4114670759        1.2377559641
H         3.6131804894       1.6927331763        0.5675298485
H         -1.514345078       0.2508630476        1.8893179967
H         -3.185281586       0.8000625244        2.0019163527
H         -2.6959723104       -0.3042097624        -1.8207718261
H         -1.0727859959       -0.9747098278        -2.0013646407
H         2.1792783963       -1.554092067        -1.3665942807
H         0.5275938824       -1.7963297923        -0.7904715108
H         0.8782279459       0.3815278411        -2.0509633419
H         -3.8585893353       -0.7485192696        0.2081355372
H         -3.0080137105       -1.6576655563        1.4699019738
 H         -1.7246586566       2.3631604966        0.6100200611
H         -1.1235704023       1.5119505821        -1.6976748174

