31 
 
C         1.3702685643       0.9971181946        -0.1740405795
C         3.6304450946       -0.7565625659        -0.0018677247
C         -2.2057416473       -1.3936226391        -0.1019228669
C         1.2638273385       -0.2972049551        0.6220758731
C         2.2204053244       -1.3242547106        0.0369091996
O         -1.5835826817       0.7800700127        0.7458111666
C         -3.4337766141       -0.7864433282        -0.7803860343
O         3.6797236294       0.4617818494        -0.7370281284
C         -3.8552185095       0.4920098056        -0.0596401743
C         -1.1144498099       -0.3495096032        0.0167137143
C         -2.6651699325       1.4258837222        0.0716528432
C         2.8269796983       1.4444713279        -0.1610954921
O         -0.0443955784       -0.8947111221        0.7236951257
H         1.0722687873       0.8409128162        -1.2115515782
H         0.749423139       1.7833011239        0.2528833397
H         4.3166831602       -1.4437376979        -0.4913715211
H         3.9896354938       -0.5732979984        1.0170932156
H         -2.4550544716       -1.7360222807        0.9051854653
H         -1.8213425967       -2.2419292877        -0.6678551407
H         1.5660065726       -0.0812185844        1.6505488092
H         2.211241769       -2.2337518896        0.6385183179
H         1.8945435391       -1.5766664445        -0.9751793478
H         -4.2489835154       -1.5085982109        -0.7993543299
H         -3.1879573072       -0.5484273631        -1.8187544235
H         -4.2268283297       0.2517712993        0.9391001133
H         -4.6540776506       1.0011527586        -0.5995801939
H         -0.8080459596       -0.0129403805        -0.9790172511
H         -2.3258565181       1.751587135        -0.9186170506
H         -2.9058911723       2.3082896152        0.6602871925
H         3.1532130999       1.6468075325        0.8651606363
H         2.9544940839       2.3498898687        -0.7497831753

