31 
 
C         1.9380130978       -0.5094701054        1.2138129441
C         2.9073369925       0.6029577792        -1.2207102555
C         -2.4268637074       -1.3056081586        -0.1850219768
C         1.2663126341       -0.8686768086        -0.1034406755
C         1.425285513       0.2685519128        -1.1020806486
O         -1.2022242394       0.60829595        0.6349349512
C         -3.6150322323       -0.4062010564        -0.5284191115
O         3.4673075176       0.9645857241        0.0361587115
C         -3.5992478349       0.8458038884        0.3459020738
C         -1.1440248833       -0.5036351571        -0.2525962344
C         -2.2398862928       1.5173729462        0.2627742445
C         3.3839944364       -0.1139752215        0.9628051503
O         -0.0818807686       -1.3120614853        0.1489909469
H         1.4053742033       0.324508565        1.6759771956
H         1.9032348778       -1.3601607062        1.8950311508
H         3.0552220058       1.4524953884        -1.8833108872
H         3.4574994763       -0.2538985974        -1.6251513227
H         -2.5258150419       -1.7001161307        0.8289008798
H         -2.3557189642       -2.1457732375        -0.8754085951
H         1.7747727294       -1.744567336        -0.5157713152
H         1.0520239698       -0.0146831103        -2.0864942211
H         0.8858708309       1.1559980138        -0.7667173225
H         -4.5486963063       -0.9535661621        -0.4058670468
H         -3.5482497838       -0.1110325745        -1.5789573168
H         -3.7956494587       0.5762564391        1.3861125561
H         -4.369391819       1.5513299357        0.0328420443
H         -0.9932923803       -0.1212306936        -1.2676879935
H         -2.0527093103       1.8752584191        -0.7564054156
H         -2.1626409403       2.3618353831        0.9439274086
H         3.9476049476       -0.9670689458        0.5685646972
H         3.863822731       0.2237811422        1.8784933841

