31 
 
C         2.2460690311       -1.3453498949        -0.0136962132
C         2.9861279652       1.4065652316        -0.0053981901
C         -2.3420164808       -1.3175916911        0.3991115695
C         1.1620525607       -0.2870655117        -0.1347014802
C         1.6291809148       0.9937555361        0.5456493299
O         -1.4750581301       0.9250426458        0.1421733234
C         -3.6822514284       -0.8763508496        -0.1885749023
O         3.954788617       0.3767130434        0.1612608297
C         -3.8831896598       0.6205541459        0.034572445
C         -1.2284401758       -0.4458361522        -0.1416439448
C         -2.6768811034       1.3828501195        -0.4829403276
C         3.5692273988       -0.8049205553        -0.5324900352
O         -0.0273301766       -0.8123590235        0.4671858718
H         2.3532876857       -1.6213507975        1.037871081
H         1.9692038238       -2.2376344164        -0.575971945
H         3.3681135097       2.2802984399        0.5177072737
H         2.9034885063       1.6492720388        -1.0710318153
H         -2.3506494941       -1.2141770911        1.4867338192
H         -2.1259268112       -2.3573128539        0.1548151845
H         0.9611537007       -0.0887145369        -1.1926822429
H         0.9165671223       1.8015078239        0.3900804334
H         1.7138307655       0.8103469832        1.6192913284
H         -4.4946953179       -1.4491261986        0.256476366
H         -3.6895234802       -1.0833780976        -1.2620090079
H         -4.0015649648       0.8265471986        1.1007746908
H         -4.7785124705       0.9764890294        -0.475887041
H         -1.1439302116       -0.5548994151        -1.2318260732
H         -2.585216354       1.2566435478        -1.56759145
H         -2.7440719811       2.4460203092        -0.2637308808
H         3.4933134776       -0.5819658525        -1.6027826338
H         4.3690671609       -1.527320155        -0.3868533633

