31 
 
C         1.6287128768       1.1452882335        0.389796443
C         3.2262470587       -1.0359426533        -0.5503381657
C         -2.1521873759       -1.2817879833        0.4265807436
C         1.3000723983       -0.2808513342        0.804127529
C         1.7486426257       -1.2693810481        -0.2624611965
O         -1.5586062498       1.0623404257        0.4252766318
C         -3.3012900456       -1.0015669825        -0.5413209699
O         3.4640492899       0.3034574554        -0.9706368159
C         -3.7589021772       0.4483098113        -0.4031784125
C         -1.0529940556       -0.2566040155        0.2425557774
C         -2.5666799034       1.3786999731        -0.537160311
C         3.1091237121       1.2355128567        0.0460234453
O         -0.0638076495       -0.4440645853        1.2148261793
H         1.0388201482       1.4247390191        -0.486806604
H         1.3943071005       1.8384800409        1.1979964292
H         3.572673595       -1.6806350582        -1.3546886419
H         3.8242413495       -1.2421642872        0.3443085548
H         -2.4983458408       -1.2187415025        1.4611656255
H         -1.7315510033       -2.274846204        0.2667177437
H         1.8604617966       -0.5030313242        1.7152734925
H         1.5987013419       -2.2929457772        0.0833077996
H         1.1906129768       -1.1319343063        -1.1892975884
H         -4.1255464054       -1.6896879816        -0.3581595509
H         -2.9574461732       -1.1730388345        -1.5649539533
H         -4.2199102176       0.6027955281        0.575038231
H         -4.4979296679       0.7005772759        -1.1642008622
H         -0.6361839917       -0.3189679161        -0.7677178636
H         -2.1370281007       1.3020979776        -1.5427064969
H         -2.8404397237       2.4159815255        -0.357772575
H         3.7152610521       1.0390611061        0.9375282631
H         3.3633512591       2.2221425654        -0.3343118809

