31 
 
C         1.8998702739       -1.2323987057        -0.3372247966
C         3.3391022325       1.1674809724        0.2265563619
C         -2.290885122       -1.0809491084        0.8123793428
C         1.141291503       0.0170920007        0.0813856767
C         2.0282907727       0.8918169772        0.9483454034
O         -1.5776576046       1.042195317        -0.0993040276
C         -3.6125776025       -0.9716600284        0.0519713889
O         4.0076654864       -0.0417103085        -0.1183663296
C         -3.9404775405       0.4944455975        -0.2206955323
C         -1.2102237417       -0.3203317529        0.0763203818
C         -2.7592289902       1.1696819493        -0.8943001413
C         3.215137075       -0.839308334        -0.9924784485
O         -0.0320239675       -0.3395743633        0.8250972761
H         2.1013983089       -1.8363816723        0.5501987584
H         1.3055327052       -1.8279824786        -1.0319287038
H         4.0218515718       1.730649338        0.8585628878
H         3.1530536669       1.7455764793        -0.6856117594
H         -2.3872138734       -0.6462222336        1.8101118921
H         -1.979906224       -2.1199652795        0.9190339526
H         0.8430057369       0.5815239683        -0.8061677448
H         1.5277203338       1.8335686417        1.1759197953
H         2.2319716892       0.3735475868        1.8882107634
H         -4.4117908458       -1.4510646152        0.6155299447
H         -3.523499397       -1.5025287751        -0.8996035233
H         -4.1541760772       1.009851112        0.7184049041
H         -4.8188063973       0.5872738808        -0.8600530288
H         -1.0370406854       -0.7571477022        -0.9172253469
H         -2.5777949721       0.7241651655        -1.878939395
H         -2.9222160791       2.2371981851        -1.02370928
H         3.0266008723       -0.2790431959        -1.9152668061
H         3.8093028917       -1.7168216178        -1.2368428658

