31 
 
C         1.4985289715       1.1113271034        0.3361964454
C         3.3110507477       -0.9422981968        -0.5019076369
C         -2.1664670232       -1.3378654786        0.2930186174
C         1.2945906634       -0.3203509883        0.8123617673
C         1.8603828629       -1.2973674864        -0.2092151572
O         -1.5258527064       0.9787957907        0.5366372765
C         -3.3043965586       -0.9349310937        -0.6447542101
O         3.4329085993       0.3999676126        -0.9608493392
C         -3.7308238416       0.5038538977        -0.3638575323
C         -1.0461966369       -0.3215391358        0.2164362819
C         -2.5171246259       1.4154671398        -0.3954227569
C         2.9735730921       1.3220419114        0.0217037698
O         -0.0615451159       -0.6420018749        1.1562826165
H         0.9143759418       1.3006925901        -0.5664691895
H         1.1843276955       1.8198494079        1.1028401814
H         3.7191936029       -1.5775896343        -1.2845932039
H         3.9195077555       -1.067525994        0.4008675431
H         -2.5165663101       -1.374307532        1.3275027055
H         -1.7671343427       -2.3180400379        0.0320684416
H         1.8373391242       -0.4500822898        1.7507659467
H         1.8039899744       -2.3163473976        0.1751877767
H         1.2863135585       -1.2469416391        -1.1366882061
H         -4.1446348911       -1.6191401618        -0.5339409117
H         -2.9590773104       -1.0109057187        -1.6793312511
H         -4.1959143994       0.5694336683        0.6223809758
H         -4.4580903227       0.8481370933        -1.0997059998
H         -0.6297580914       -0.2928605764        -0.7972986929
H         -2.0793805658       1.431553871        -1.4004151302
H         -2.7693206386       2.4351827327        -0.113268458
H         3.5748881921       1.2054267496        0.9303362374
H         3.1454395991       2.3174406678        -0.3812869072

