31 
 
C         2.1622558952       -1.3306178216        -0.1878163968
C         3.0610538253       1.3580930464        0.1517076629
C         -2.3517378486       -1.2397106584        0.5704725281
C         1.1412855966       -0.2134412636        -0.0543009864
C         1.7328190004       0.9289241593        0.7571010405
O         -1.4693584137       0.9461911343        0.028370191
C         -3.6853677133       -0.8707102889        -0.0792820407
O         3.975589162       0.2689941137        0.0794850413
C         -3.8776655538       0.6438942337        -0.0569716668
C         -1.232058269       -0.4518063933        -0.0735129484
C         -2.6633280369       1.3262715355        -0.6607073751
C         3.4665509011       -0.7770832338        -0.7413837325
O         -0.0334400423       -0.732068276        0.5836290739
H         2.3407284155       -1.7678177983        0.7972735366
H         1.7852684591       -2.1127400503        -0.8478146625
H         3.5374420386       2.1244093326        0.7589238217
H         2.9051552741       1.7604536329        -0.855696073
H         -2.3656440751       -0.9949352229        1.6350881809
H         -2.140994565       -2.3036522411        0.4650350183
H         0.87180863       0.1511190333        -1.0500077045
H         1.0497789538       1.7777334354        0.7818764596
H         1.8947244716       0.5870171714        1.7818850833
H         -4.5045797491       -1.3744636686        0.4318837233
H         -3.6877697035       -1.2177409182        -1.1159258147
H         -4.0023410623       0.9891585884        0.9718608695
H         -4.7673165721       0.9339552821        -0.6166397276
H         -1.1442602149       -0.7018204483        -1.1402093221
H         -2.564804137       1.0598652063        -1.7190607165
H         -2.7253646443       2.4091825129        -0.5815720031
H         3.3134715143       -0.3924141219        -1.7560501541
H         4.2340864631       -1.5468380128        -0.7766639061

