31 
 
C         -3.4442757503       -0.8147126849        0.3940927984
C         -1.2733191918       0.7165506312        -0.7173855598
C         1.0234241038       0.3098497223        -0.2397337039
C         -3.1483688236       0.5741055137        0.9559164148
O         2.6928255326       -1.4437016333        -0.0606941898
C         3.6807245475       -0.5279116821        0.394161176
C         -2.1652349019       -1.4183832478        -0.1587530614
C         2.0551142704       1.3515393405        0.1604916071
C         1.3904374474       -1.0537053492        0.3333228531
C         3.4577376133       0.8567528417        -0.1920064081
O         -1.5801211586       -0.5872165624        -1.1634065072
O         -0.2556196041       0.6968163886        0.2507231157
C         -2.482525032       1.421638252        -0.1261272614
H         -4.1835792444       -0.7421074801        -0.4071741611
H         -3.8494488985       -1.4743641102        1.1618981867
H         0.9900579026       0.2251983456        -1.3303818449
H         -4.0610625999       1.0577805541        1.3019511268
H         -2.4809074081       0.4841591338        1.8154974392
H         4.640611825       -0.9395036548        0.0899160456
H         3.6530273467       -0.4823094312        1.4898322892
H         -1.4481373038       -1.5696949913        0.6530573197
H         -2.3449517703       -2.3762971371        -0.6415516438
H         1.9783817539       1.507529448        1.2403943712
H         1.8311771132       2.3004004512        -0.3271753224
H         3.5745016519       0.8035815643        -1.2765633514
H         4.2155590404       1.5419311098        0.1880521635
H         -3.1880412097       1.5955218623        -0.9406216405
H         -2.1676225481       2.3916646104        0.256032486
H         -0.9168916461       1.234577078        -1.6105057379
H         1.3204186848       -1.0101906845        1.4281094862
H         0.7051472576       -1.8150221989        -0.0337434859

