31 
 
C         -3.2767459798       0.9806320133        0.2412395847
C         -1.1092363823       -0.9189442126        0.2733151023
C         1.051475861       -0.415692244        -0.7218884557
C         -3.2797017472       -0.1704016993        -0.7623861691
O         3.0998582465       -0.9577134331        0.4141082377
C         3.4665769524       0.4109590902        0.5432348929
C         -1.8447340285       1.3204009684        0.61528903
C         1.387134847       1.0694213401        -0.6669487039
C         1.6952900638       -1.135863483        0.4624294583
C         2.9049758781       1.2404502455        -0.6001123297
O         -1.1555477465       0.1878321059        1.149327977
O         -0.3499699441       -0.6435947029        -0.8764829334
C         -2.4968768234       -1.345321555        -0.1809809174
H         -3.8250738171       0.6911494203        1.1409344824
 H         -3.7594464514       1.8669150664        -0.1716120946
H         1.5028661678       -0.8345967773        -1.6248702337
H         -4.2973474867       -0.4790565748        -0.9990046933
H         -2.8135514966       0.1577324196        -1.6935851185
H         4.5540560687       0.4334252236        0.5573338525
H         3.0978869757       0.7929370433        1.5030183067
H         -1.3098528758       1.6906640219        -0.263485468
H         -1.7988092723       2.0813167541        1.3913855332
H         0.927622148       1.502280521        0.2249893061
H         0.9692316617       1.5725046009        -1.5392956872
 H         3.3600179745       0.9071448581        -1.5353495156
H         3.1715282845       2.2879083019        -0.4580434493
H         -3.0193364914       -1.7356275003        0.694408649
H         -2.3943634123       -2.1581406511        -0.8985371617
H         -0.646801221       -1.7124242898        0.8595708768
H         1.305199058       -0.7458676066        1.4094889197
H         1.5136249887       -2.208645265        0.4168037221

