31 
 
C         -3.2532509637       -0.4471597415        0.982031225
C         -1.2420377402       0.0352861925        -1.0206312878
C         1.0607519537       0.5802258862        -0.48980014
C         -3.178606341       0.9223022249        0.3085770255
O          2.8135276915       -1.0646122652        -0.6345984692
C         3.5072464725       -0.5470587098        0.4926936232
C         -1.8844686044       -1.1061641435        0.9599948088
C         1.7577692963       1.2163010501        0.7032517669
C         1.4096601604       -0.9130469259        -0.509051318
 C         3.2595197887       0.9439847509        0.6468996518
O         -1.378144095       -1.2092933367        -0.3713826511
O         -0.3275591679       0.874107207        -0.3628916408
C         -2.5717694476       0.7716992935        -1.086211386
H         -3.9625383602       -1.0837631765        0.4475965518
H         -3.596322046       -0.3614201817        2.0134966379
H         1.4312207059       1.0183602343        -1.4239606942
H         -4.1673264579       1.374664594        0.2400299126
H         -2.5561297207       1.589391547        0.9079923764
H         4.5609185859       -0.7634302586        0.3300519864
H          3.1775099386       -1.0792830906        1.3933248502
H         -1.1788884587       -0.5365974664        1.5720373756
H         -1.9226494425       -2.1254010932        1.3378845948
H         1.3296485258       0.7810848255        1.6105791203
H         1.5532312148       2.2869799411        0.7220792517
H          3.7006345505       1.4670424078        -0.2040238592
H         3.7512803018       1.3076538346        1.5491868774
H         -3.2412099634       0.185293906        -1.7180878255
H         -2.417669879       1.7376764628        -1.5650301877
H         -0.878641001       -0.2081175571        -2.0220240027
H          1.0577982595       -1.3905118907        0.4119561628
H         0.9653152431       -1.4286195205        -1.3562013368

