31 
 
C         -3.6029979854       0.3953235662        -0.4869522412
C         -1.0902672455       -0.1688104927        0.8005353058
C         1.0111485554       -0.1624315619        -0.472383987
C         -3.2025462017       -1.056622569        -0.2302370222
O         3.3001748026       -0.9872315695        -0.5738170882
C         3.7752187667       0.0981393592        0.211848335
C         -2.3585837421       1.2585075083        -0.6109174141
C         1.4564092558       1.0387791115        0.354397106
C         1.9692289701       -1.3276835931        -0.240104519
C         2.9187849936       1.3371120891        0.0123029354
O         -1.5308064444       1.1484334363        0.5472018478
O         -0.3067930397       -0.669399333        -0.2505793502
C         -2.2649793972       -1.120778504        0.9745514232
H         -4.2089073716       0.7641791779        0.3442938537
H         -4.1978590941       0.4856156573        -1.3963897075
H         1.0585992384       0.115601919        -1.529380712
H         -4.0817487606       -1.6755971399        -0.0543866728
H         -2.6943673737       -1.4551351809        -1.1102718386
H         4.8042552183       0.2710450311        -0.0956186483
H         3.7723806709       -0.1940229893        1.2692445317
H         -1.7831281872       0.9707567681        -1.4955600318
H         -2.6094995223       2.3137848704        -0.692171969
H         1.3871593293       0.8083924501        1.4199790108
H         0.823781271       1.9008769741        0.1583435414
H         3.0003061084       1.6612392795        -1.0274223679
H         3.2956861306       2.1449922046        0.6395613195
H         -2.8009564836       -0.817650536        1.8758336411
H         -1.8826977312       -2.1280928943        1.1340066221
H         -0.5114511234       -0.0972837296        1.7208174466
H         1.9050361933       -1.6316697651        0.8135548422
H         1.6866911994       -2.1732355443        -0.8641471926

