31 
 
C         -3.4135156695       -0.5192245318        0.7839613268
C         -1.2413855387       0.2270080438        -0.9540433432
C         1.0729325016       0.4798193701        -0.3927237978
C         -3.1681026159       0.9578478301        0.480798025
O         2.7780542994       -1.2431732992        -0.446301346
C         3.5993068524       -0.5472992022        0.4809925493
C         -2.1108616963       -1.2906020847        0.6565456005
C         1.9358350139       1.3070555192        0.5449681282
C         1.3990629739       -1.0053778548        -0.2253231517
C         3.4097767534       0.9550080513        0.3560290009
O         -1.5254746125       -1.1192419265        -0.6351140694
O         -0.282456487       0.776246205        -0.0859111209
C         -2.4924053893       1.0887224253        -0.8833200484
H         -4.1397249416       -0.9263778717        0.0762451334
H         -3.8163598968       -0.6551102086        1.7880620529
H         1.2780072516       0.7645317252        -1.432066333
H         -4.1027282186       1.5174643948        0.4920230514
H         -2.5231271049       1.3855666878        1.2511295059
H         4.623829121       -0.8405058216        0.2620039118
H         3.3532778455       -0.8752543111        1.4984931966
H         -1.4011240431       -0.9624784128        1.4211171897
H         -2.2650130268       -2.3615736861        0.7676080036
H         1.6304250384       1.0818217206        1.5707948125
H         1.7545358101       2.3675212666        0.3712727813
H         3.7476777114       1.2730149287        -0.6325083703
H         4.025168321       1.4669255028        1.0958379909
H         -3.1726934913       0.7459515916        -1.6651188123
H         -2.2216714949       2.1206269627        -1.1022472511
H         -0.8398719965       0.1941892806        -1.9699566806
H         1.1119144765       -1.3209855009        0.7864381871
H         0.8566872536       -1.6129827943        -0.943681123

